
 OpenBabel09252009283D

 52 60  0  0  1  0  0  0  0  0999 V2000
    6.1877   -7.6536    3.6264 O   0  0  0  0  0  0  0  0  0  0  0  0
    6.2732   -6.3879    4.1448 C   0  0  0  0  0  0  0  0  0  0  0  0
    5.7301   -5.3178    3.5518 C   0  0  0  0  0  0  0  0  0  0  0  0
    5.0677   -5.4114    2.3392 O   0  0  0  0  0  0  0  0  0  0  0  0
    3.8198   -4.7142    2.3528 C   0  0  2  0  0  0  0  0  0  0  0  0
    3.0573   -4.9473    1.1516 O   0  0  0  0  0  0  0  0  0  0  0  0
    2.7034   -6.2619    0.8691 C   0  0  0  0  0  0  0  0  0  0  0  0
    2.5696   -6.7022   -0.4029 C   0  0  0  0  0  0  0  0  0  0  0  0
    2.2854   -8.0411   -0.7196 O   0  0  0  0  0  0  0  0  0  0  0  0
    2.1759   -8.9797    0.3063 C   0  0  0  0  0  0  0  0  0  0  0  0
    2.1978   -8.5990    1.5906 C   0  0  0  0  0  0  0  0  0  0  0  0
    2.4169   -7.1939    2.0205 C   0  0  0  0  0  0  0  0  0  0  0  0
    2.1048   -9.6381    2.6473 C   0  0  0  0  0  0  0  0  0  0  0  0
    2.0767   -9.2930    3.8923 N   0  0  0  0  0  0  0  0  0  0  0  0
    2.0371  -10.2706    4.8619 C   0  0  0  0  0  0  0  0  0  0  0  0
    2.0226   -9.9142    6.0332 O   0  0  0  0  0  0  0  0  0  0  0  0
    2.0304  -11.6221    4.5765 N   0  0  0  0  0  0  0  0  0  0  0  0
    2.0556  -11.9943    3.3419 C   0  0  0  0  0  0  0  0  0  0  0  0
    2.0793  -11.0517    2.2195 C   0  0  0  0  0  0  0  0  0  0  0  0
    2.0874  -11.3478    0.9024 C   0  0  0  0  0  0  0  0  0  0  0  0
    2.0745  -10.3120   -0.0333 N   0  0  0  0  0  0  0  0  0  0  0  0
    2.1143  -12.7257    0.3526 C   0  0  0  0  0  0  0  0  0  0  0  0
    2.7675  -13.0321   -0.8924 O   0  0  0  0  0  0  0  0  0  0  0  0
    3.3159  -13.5141    0.3490 O   0  0  0  0  0  0  0  0  0  0  0  0
    2.7673   -5.8451   -1.5957 C   0  0  0  0  0  0  0  0  0  0  0  0
    4.0327   -5.8572   -2.0703 N   0  0  0  0  0  0  0  0  0  0  0  0
    4.2111   -5.2007   -3.2120 C   0  0  0  0  0  0  0  0  0  0  0  0
    5.5001   -5.1150   -3.6296 O   0  0  0  0  0  0  0  0  0  0  0  0
    3.2920   -4.5936   -3.9566 N   0  0  0  0  0  0  0  0  0  0  0  0
    2.0540   -4.5717   -3.4695 C   0  0  0  0  0  0  0  0  0  0  0  0
    1.7124   -5.1493   -2.2335 C   0  0  0  0  0  0  0  0  0  0  0  0
    0.3868   -4.9757   -1.7521 C   0  0  0  0  0  0  0  0  0  0  0  0
   -0.5647   -4.2876   -2.5195 C   0  0  0  0  0  0  0  0  0  0  0  0
   -0.2434   -3.8220   -3.7826 C   0  0  0  0  0  0  0  0  0  0  0  0
    1.0706   -3.9443   -4.2301 C   0  0  0  0  0  0  0  0  0  0  0  0
   -1.1199   -3.1874   -4.6135 O   0  0  0  0  0  0  0  0  0  0  0  0
   -2.5083   -3.4770   -4.4129 C   0  0  2  0  0  0  0  0  0  0  0  0
   -2.9635   -3.5773   -2.9760 C   0  0  0  0  0  0  0  0  0  0  0  0
   -4.1386   -3.5003   -2.6401 O   0  0  0  0  0  0  0  0  0  0  0  0
   -1.8996   -4.0000   -1.9872 C   0  0  0  0  0  0  0  0  0  0  0  0
   -2.1553   -4.1196   -0.8000 O   0  0  0  0  0  0  0  0  0  0  0  0
   -2.9258   -4.6753   -5.2204 C   0  0  1  0  0  0  0  0  0  0  0  0
   -2.7382   -4.5714   -6.6529 O   0  0  0  0  0  0  0  0  0  0  0  0
   -2.5857   -5.9325   -4.6346 O   0  0  0  0  0  0  0  0  0  0  0  0
   -3.9063   -5.6840   -4.7967 C   0  0  0  0  0  0  0  0  0  0  0  0
   -4.7169   -6.3066   -5.4404 O   0  0  0  0  0  0  0  0  0  0  0  0
    4.0510   -3.2153    2.5080 C   0  0  0  0  0  0  0  0  0  0  0  0
    3.3998   -2.3309    1.9698 O   0  0  0  0  0  0  0  0  0  0  0  0
    5.1384   -2.8794    3.5064 C   0  0  0  0  0  0  0  0  0  0  0  0
    5.4293   -1.7165    3.7408 O   0  0  0  0  0  0  0  0  0  0  0  0
    5.8538   -4.0000    4.2309 C   0  0  0  0  0  0  0  0  0  0  0  0
    6.4290   -3.8220    5.2913 O   0  0  0  0  0  0  0  0  0  0  0  0
  1  2  1  0  0  0  0
  2  3  2  0  0  0  0
  3  4  1  0  0  0  0
  3 51  1  0  0  0  0
  4  5  1  0  0  0  0
  5  6  1  6  0  0  0
  5 47  1  0  0  0  0
  6  7  1  0  0  0  0
  7  8  2  0  0  0  0
  7 12  1  0  0  0  0
  8  9  1  0  0  0  0
  8 25  1  0  0  0  0
  9 10  1  0  0  0  0
 10 11  2  0  0  0  0
 10 21  1  0  0  0  0
 11 12  1  0  0  0  0
 11 13  1  0  0  0  0
 13 14  2  0  0  0  0
 13 19  1  0  0  0  0
 14 15  1  0  0  0  0
 15 16  2  0  0  0  0
 15 17  1  0  0  0  0
 17 18  2  0  0  0  0
 18 19  1  0  0  0  0
 19 20  2  0  0  0  0
 20 21  1  0  0  0  0
 20 22  1  0  0  0  0
 22 23  1  0  0  0  0
 22 24  1  0  0  0  0
 23 24  1  0  0  0  0
 25 26  2  0  0  0  0
 25 31  1  0  0  0  0
 26 27  1  0  0  0  0
 27 28  1  0  0  0  0
 27 29  2  0  0  0  0
 29 30  1  0  0  0  0
 30 31  2  0  0  0  0
 30 35  1  0  0  0  0
 31 32  1  0  0  0  0
 32 33  2  0  0  0  0
 33 34  1  0  0  0  0
 33 40  1  0  0  0  0
 34 35  2  0  0  0  0
 34 36  1  0  0  0  0
 37 36  1  1  0  0  0
 37 38  1  0  0  0  0
 37 42  1  0  0  0  0
 38 39  2  0  0  0  0
 38 40  1  0  0  0  0
 40 41  2  0  0  0  0
 42 43  1  6  0  0  0
 42 44  1  0  0  0  0
 42 45  1  0  0  0  0
 44 45  1  0  0  0  0
 45 46  2  0  0  0  0
 47 48  2  0  0  0  0
 47 49  1  0  0  0  0
 49 50  2  0  0  0  0
 49 51  1  0  0  0  0
 51 52  2  0  0  0  0
M  END
$$$$