
 OpenBabel10232019453D

 93108  0  0  1  0  0  0  0  0999 V2000
    3.5000    1.3376   -0.6257 Cl  0  0  0  0  0  0  0  0  0  0  0  0
    3.9878   -0.2824   -0.1093 C   0  0  3  0  0  0  0  0  0  0  0  0
    2.8315   -1.0961    0.4363 C   0  0  0  0  0  0  0  0  0  0  0  0
    3.3887   -2.5207    0.4114 C   0  0  0  0  0  0  0  0  0  0  0  0
    4.4345   -2.5965   -0.7433 C   0  0  3  0  0  0  0  0  0  0  0  0
    4.4711   -1.1437   -1.2739 C   0  0  0  0  0  0  0  0  0  0  0  0
    5.8166   -3.2023   -0.2976 C   0  0  3  0  0  0  0  0  0  0  0  0
    6.9003   -3.3009   -1.3864 C   0  0  0  0  0  0  0  0  0  0  0  0
    6.6144   -4.3052   -2.5411 C   0  0  3  0  0  0  0  0  0  0  0  0
    7.7964   -4.3228   -3.5664 C   0  0  3  0  0  0  0  0  0  0  0  0
    7.4878   -5.2394   -4.6576 O   0  0  0  0  0  0  0  0  0  0  0  0
    8.4103   -5.2038   -5.6635 C   0  0  0  0  0  0  0  0  0  0  0  0
    8.7020   -3.9524   -6.1694 C   0  0  0  0  0  0  0  0  0  0  0  0
    7.8828   -2.8255   -5.6311 C   0  0  3  0  0  0  0  0  0  0  0  0
    8.0865   -2.8728   -4.1111 C   0  0  3  0  0  0  0  0  0  0  0  0
    9.4457   -2.5145   -3.7840 O   0  0  0  0  0  0  0  0  0  0  0  0
    8.2484   -1.5948   -6.2428 O   0  0  0  0  0  0  0  0  0  0  0  0
    9.7834   -3.7945   -7.0057 C   0  0  0  0  0  0  0  0  0  0  0  0
   10.5182   -4.9011   -7.4289 C   0  0  0  0  0  0  0  0  0  0  0  0
   10.0528   -6.2009   -7.1739 C   0  0  0  0  0  0  0  0  0  0  0  0
    9.0115   -6.3335   -6.2130 C   0  0  0  0  0  0  0  0  0  0  0  0
    8.6491   -7.5552   -5.7976 F   0  0  0  0  0  0  0  0  0  0  0  0
   10.7164   -7.2233   -7.8741 C   0  0  0  0  0  0  0  0  0  0  0  0
   10.2689   -8.8958   -7.7706 Cl  0  0  0  0  0  0  0  0  0  0  0  0
   11.7728   -6.9235   -8.7802 C   0  0  0  0  0  0  0  0  0  0  0  0
   12.3522   -5.6326   -8.9220 C   0  0  0  0  0  0  0  0  0  0  0  0
   11.7540   -4.6912   -8.0677 C   0  0  0  0  0  0  0  0  0  0  0  0
   12.7390   -3.5035   -7.2460 Cl  0  0  0  0  0  0  0  0  0  0  0  0
   13.5047   -5.3367   -9.9033 C   0  0  0  0  0  0  0  0  0  0  0  0
   14.0359   -6.4039  -10.6630 C   0  0  0  0  0  0  0  0  0  0  0  0
   14.9030   -6.3275  -11.8662 C   0  0  0  0  0  0  0  0  0  0  0  0
   15.6368   -5.1182  -11.7471 N   0  3  0  0  0  0  0  0  0  0  0  0
   15.2905   -4.1081  -10.8781 N   0  3  0  0  0  0  0  0  0  0  0  0
   14.1050   -4.1006  -10.2105 C   0  0  0  0  0  0  0  0  0  0  0  0
   13.5683   -2.7384   -9.8888 C   0  0  0  0  0  0  0  0  0  0  0  0
   16.3990   -2.7951  -10.6531 Cl  0  0  0  0  0  0  0  0  0  0  0  0
   16.7210   -4.9000  -12.4663 N   0  0  0  0  0  0  0  0  0  0  0  0
   16.9772   -5.5943  -13.5619 C   0  0  0  0  0  0  0  0  0  0  0  0
   16.2021   -6.6588  -14.0222 C   0  0  0  0  0  0  0  0  0  0  0  0
   15.2406   -7.2109  -13.1490 C   0  0  0  0  0  0  0  0  0  0  0  0
   14.5244   -8.6985  -13.6460 N   0  3  0  0  0  0  0  0  0  0  0  0
   14.9034   -9.4659  -14.8527 N   0  3  0  0  0  0  0  0  0  0  0  0
   16.3840   -9.3594  -15.7359 Cl  0  0  0  0  0  0  0  0  0  0  0  0
   14.2462  -10.6061  -15.2627 C   0  0  0  0  0  0  0  0  0  0  0  0
   13.2930  -11.3340  -14.5010 C   0  0  0  0  0  0  0  0  0  0  0  0
   12.9967  -10.7384  -13.3119 C   0  0  0  0  0  0  0  0  0  0  0  0
   13.5105   -9.3876  -12.9293 C   0  0  0  0  0  0  0  0  0  0  0  0
   12.9633   -9.0246  -11.7214 N   0  0  0  0  0  0  0  0  0  0  0  0
   12.1777  -11.4207  -12.4987 N   0  0  0  0  0  0  0  0  0  0  0  0
   11.6556  -12.6396  -12.7175 N   0  3  0  0  0  0  0  0  0  0  0  0
   11.8694  -13.3040  -13.9032 C   0  0  0  0  0  0  0  0  0  0  0  0
   12.6722  -12.5746  -14.8152 N   0  3  0  0  0  0  0  0  0  0  0  0
   12.8607  -13.1063  -16.0707 N   0  0  0  0  0  0  0  0  0  0  0  0
   12.2940  -14.2758  -16.4490 N   0  3  0  0  0  0  0  0  0  0  0  0
   12.4544  -14.7640  -17.8625 C   0  0  0  0  0  0  0  0  0  0  0  0
   11.5995  -15.0012  -15.5607 C   0  0  0  0  0  0  0  0  0  0  0  0
   11.3903  -14.5409  -14.3116 N   0  3  0  0  0  0  0  0  0  0  0  0
   10.5454  -15.6259  -13.2914 Cl  0  0  0  0  0  0  0  0  0  0  0  0
   10.7012  -13.2189  -11.4172 Cl  0  0  0  0  0  0  0  0  0  0  0  0
   16.2057   -6.8387  -15.4164 N   0  0  0  0  0  0  0  0  0  0  0  0
    6.0292   -5.6827   -2.0376 C   0  0  3  0  0  0  0  0  0  0  0  0
    5.6704   -5.7293   -0.5480 C   0  0  0  0  0  0  0  0  0  0  0  0
    5.6641   -4.5962    0.2751 C   0  0  0  0  0  0  0  0  0  0  0  0
    5.5277   -4.7599    1.6740 C   0  0  0  0  0  0  0  0  0  0  0  0
    5.1220   -5.9727    2.2477 C   0  0  0  0  0  0  0  0  0  0  0  0
    4.7166   -6.9654    1.3304 C   0  0  0  0  0  0  0  0  0  0  0  0
    5.2394   -6.9395    0.0215 C   0  0  0  0  0  0  0  0  0  0  0  0
    5.4582   -8.2838   -0.6444 C   0  0  3  0  0  0  0  0  0  0  0  0
    5.7878   -8.1804   -2.1142 C   0  0  0  0  0  0  0  0  0  0  0  0
    6.7268   -7.0218   -2.4072 C   0  0  3  0  0  0  0  0  0  0  0  0
    6.9498   -7.1582   -3.7383 F   0  0  0  0  0  0  0  0  0  0  0  0
    4.3379   -9.3090   -0.4150 C   0  0  0  0  0  0  0  0  0  0  0  0
    3.1718   -8.7236    0.3630 C   0  0  0  0  0  0  0  0  0  0  0  0
    3.6818   -8.0463    1.6398 C   0  0  3  0  0  0  0  0  0  0  0  0
    2.2476   -7.3496    2.4584 Cl  0  0  0  0  0  0  0  0  0  0  0  0
    5.1589   -6.2305    3.7202 C   0  0  0  0  0  0  0  0  0  0  0  0
    5.3756   -7.5460    4.1784 C   0  0  0  0  0  0  0  0  0  0  0  0
    5.1900   -7.9401    5.5136 C   0  0  0  0  0  0  0  0  0  0  0  0
    4.9225   -9.4137    5.7951 C   0  0  3  0  0  0  0  0  0  0  0  0
    3.4948   -9.7172    5.2825 C   0  0  0  0  0  0  0  0  0  0  0  0
    3.0353  -11.1363    5.5576 C   0  0  0  0  0  0  0  0  0  0  0  0
    3.1334  -11.4814    7.0440 C   0  0  3  0  0  0  0  0  0  0  0  0
    4.5870  -11.2624    7.5315 C   0  0  3  0  0  0  0  0  0  0  0  0
    5.0883   -9.8055    7.2793 C   0  0  3  0  0  0  0  0  0  0  0  0
    4.4313   -8.7429    8.1845 C   0  0  0  0  0  0  0  0  0  0  0  0
    5.0162   -7.3323    7.9597 C   0  0  3  0  0  0  0  0  0  0  0  0
    5.0535   -6.9579    6.4940 C   0  0  0  0  0  0  0  0  0  0  0  0
    4.9860   -5.6159    6.0856 C   0  0  0  0  0  0  0  0  0  0  0  0
    4.9928   -5.2699    4.7236 C   0  0  0  0  0  0  0  0  0  0  0  0
    4.8348   -3.9733    4.4147 F   0  0  0  0  0  0  0  0  0  0  0  0
    6.4225   -7.2112    8.5630 C   0  0  0  0  0  0  0  0  0  0  0  0
    4.7796  -11.6851    8.9907 C   0  0  0  0  0  0  0  0  0  0  0  0
    2.6260  -12.9118    7.2509 C   0  0  0  0  0  0  0  0  0  0  0  0
  1  2  1  0  0  0  0
  2  3  1  0  0  0  0
  2  6  1  0  0  0  0
  3  4  1  0  0  0  0
  4  5  1  0  0  0  0
  5  6  1  0  0  0  0
  5  7  1  0  0  0  0
  7  8  1  0  0  0  0
  7 63  1  0  0  0  0
  8  9  1  0  0  0  0
  9 10  1  0  0  0  0
  9 61  1  0  0  0  0
 10 11  1  0  0  0  0
 10 15  1  0  0  0  0
 11 12  1  0  0  0  0
 12 13  2  0  0  0  0
 12 21  1  0  0  0  0
 13 14  1  0  0  0  0
 13 18  1  0  0  0  0
 14 15  1  0  0  0  0
 14 17  1  0  0  0  0
 15 16  1  0  0  0  0
 18 19  2  0  0  0  0
 19 20  1  0  0  0  0
 19 27  1  0  0  0  0
 20 21  2  0  0  0  0
 20 23  1  0  0  0  0
 21 22  1  0  0  0  0
 23 24  1  0  0  0  0
 23 25  2  0  0  0  0
 25 26  1  0  0  0  0
 26 27  2  0  0  0  0
 26 29  1  0  0  0  0
 27 28  1  0  0  0  0
 29 30  2  0  0  0  0
 29 34  1  0  0  0  0
 30 31  1  0  0  0  0
 31 32  2  0  0  0  0
 31 40  1  0  0  0  0
 32 33  1  0  0  0  0
 32 37  1  0  0  0  0
 33 34  2  0  0  0  0
 33 36  1  0  0  0  0
 34 35  1  0  0  0  0
 37 38  2  0  0  0  0
 38 39  1  0  0  0  0
 39 40  2  0  0  0  0
 39 60  1  0  0  0  0
 40 41  1  0  0  0  0
 41 42  2  0  0  0  0
 41 47  1  0  0  0  0
 42 43  1  0  0  0  0
 42 44  1  0  0  0  0
 44 45  2  0  0  0  0
 45 46  1  0  0  0  0
 45 52  1  0  0  0  0
 46 47  2  0  0  0  0
 46 49  1  0  0  0  0
 47 48  1  0  0  0  0
 49 50  2  0  0  0  0
 50 51  1  0  0  0  0
 50 59  1  0  0  0  0
 51 52  2  0  0  0  0
 51 57  1  0  0  0  0
 52 53  1  0  0  0  0
 53 54  2  0  0  0  0
 54 55  1  0  0  0  0
 54 56  1  0  0  0  0
 56 57  2  0  0  0  0
 57 58  1  0  0  0  0
 61 62  1  0  0  0  0
 61 70  1  0  0  0  0
 62 63  2  0  0  0  0
 62 67  1  0  0  0  0
 63 64  1  0  0  0  0
 64 65  2  0  0  0  0
 65 66  1  0  0  0  0
 65 76  1  0  0  0  0
 66 67  2  0  0  0  0
 66 74  1  0  0  0  0
 67 68  1  0  0  0  0
 68 69  1  0  0  0  0
 68 72  1  0  0  0  0
 69 70  1  0  0  0  0
 70 71  1  0  0  0  0
 72 73  1  0  0  0  0
 73 74  1  0  0  0  0
 74 75  1  0  0  0  0
 76 77  2  0  0  0  0
 76 89  1  0  0  0  0
 77 78  1  0  0  0  0
 78 79  1  0  0  0  0
 78 87  2  0  0  0  0
 79 80  1  0  0  0  0
 79 84  1  0  0  0  0
 80 81  1  0  0  0  0
 81 82  1  0  0  0  0
 82 83  1  0  0  0  0
 82 93  1  0  0  0  0
 83 84  1  0  0  0  0
 83 92  1  0  0  0  0
 84 85  1  0  0  0  0
 85 86  1  0  0  0  0
 86 87  1  0  0  0  0
 86 91  1  0  0  0  0
 87 88  1  0  0  0  0
 88 89  2  0  0  0  0
 89 90  1  0  0  0  0
M  CHG  8  32   1  33   1  41   1  42   1  50   1  52   1  54   1  57   1
M  END
$$$$