
 OpenBabel11262014573D

 53 61  0  0  1  0  0  0  0  0999 V2000
    3.3301    7.4453   -2.7885 F   0  0  0  0  0  0  0  0  0  0  0  0
    2.6801    6.4291   -3.3867 C   0  0  0  0  0  0  0  0  0  0  0  0
    2.3420    5.3325   -2.7074 C   0  0  0  0  0  0  0  0  0  0  0  0
    2.6726    5.2109   -1.3671 O   0  0  0  0  0  0  0  0  0  0  0  0
    1.7766    4.3897   -0.6161 C   0  0  2  0  0  0  0  0  0  0  0  0
    2.1740    4.3431    0.7630 O   0  0  0  0  0  0  0  0  0  0  0  0
    2.1952    5.5463    1.4532 C   0  0  0  0  0  0  0  0  0  0  0  0
    3.0418    5.7143    2.4879 C   0  0  0  0  0  0  0  0  0  0  0  0
    3.0980    6.8669    3.2537 O   0  0  0  0  0  0  0  0  0  0  0  0
    2.1010    7.8157    3.0993 C   0  0  0  0  0  0  0  0  0  0  0  0
    1.1659    7.7253    2.1361 C   0  0  0  0  0  0  0  0  0  0  0  0
    1.1759    6.6160    1.1265 C   0  0  0  0  0  0  0  0  0  0  0  0
    0.0456    8.7422    2.0649 C   0  0  3  0  0  0  0  0  0  0  0  0
   -1.1735    8.0211    2.2161 O   0  0  0  0  0  0  0  0  0  0  0  0
   -2.3428    8.6787    2.4202 C   0  0  0  0  0  0  0  0  0  0  0  0
   -3.4142    8.0954    2.3366 O   0  0  0  0  0  0  0  0  0  0  0  0
   -2.2647   10.0016    2.7067 O   0  0  0  0  0  0  0  0  0  0  0  0
   -1.0561   10.7000    3.0436 C   0  0  0  0  0  0  0  0  0  0  0  0
    0.1026    9.7831    3.1301 C   0  0  0  0  0  0  0  0  0  0  0  0
    1.0984    9.8254    4.0416 C   0  0  0  0  0  0  0  0  0  0  0  0
    2.0780    8.8465    3.9991 N   0  0  0  0  0  0  0  0  0  0  0  0
    1.2366   10.8529    5.0991 C   0  0  0  0  0  0  0  0  0  0  0  0
    2.5262   11.2723    5.5792 O   0  0  0  0  0  0  0  0  0  0  0  0
    1.7142   12.1740    4.8022 O   0  0  0  0  0  0  0  0  0  0  0  0
    3.8947    4.6239    2.9891 C   0  0  0  0  0  0  0  0  0  0  0  0
    3.3607    3.8298    4.0078 C   0  0  0  0  0  0  0  0  0  0  0  0
    4.0920    2.7770    4.5028 C   0  0  0  0  0  0  0  0  0  0  0  0
    3.5873    2.0181    5.4791 F   0  0  0  0  0  0  0  0  0  0  0  0
    5.3410    2.5009    3.9966 C   0  0  0  0  0  0  0  0  0  0  0  0
    5.8730    3.3011    2.9815 C   0  0  0  0  0  0  0  0  0  0  0  0
    5.1474    4.3753    2.4850 N   0  3  0  0  0  0  0  0  0  0  0  0
    5.7120    5.1557    1.5150 C   0  0  0  0  0  0  0  0  0  0  0  0
    6.9833    4.8851    1.0064 C   0  0  0  0  0  0  0  0  0  0  0  0
    7.5626    5.7708    0.0006 C   0  0  0  0  0  0  0  0  0  0  0  0
    6.9332    6.7352   -0.3965 O   0  0  0  0  0  0  0  0  0  0  0  0
    8.9601    5.4388   -0.4767 C   0  0  0  0  0  0  0  0  0  0  0  0
    9.6698    6.2946   -0.9785 O   0  0  0  0  0  0  0  0  0  0  0  0
    9.3483    3.9917   -0.2738 C   0  0  1  0  0  0  0  0  0  0  0  0
    8.9485    3.4631    1.0026 O   0  0  0  0  0  0  0  0  0  0  0  0
    7.7089    3.8055    1.4579 C   0  0  0  0  0  0  0  0  0  0  0  0
    7.1502    3.0280    2.4593 C   0  0  0  0  0  0  0  0  0  0  0  0
    7.8474    1.9855    2.9365 F   0  0  0  0  0  0  0  0  0  0  0  0
    8.8125    3.1346   -1.3738 C   0  0  1  0  0  0  0  0  0  0  0  0
    7.3688    3.1262   -1.5450 O   0  0  0  0  0  0  0  0  0  0  0  0
    9.5801    3.1256   -2.5686 O   0  0  0  0  0  0  0  0  0  0  0  0
    9.5128    1.9599   -1.8969 C   0  0  0  0  0  0  0  0  0  0  0  0
    9.0357    0.8939   -2.2347 O   0  0  0  0  0  0  0  0  0  0  0  0
    1.8570    2.9874   -1.1856 C   0  0  0  0  0  0  0  0  0  0  0  0
    2.2472    1.9929   -0.5937 O   0  0  0  0  0  0  0  0  0  0  0  0
    1.4828    2.9613   -2.6461 C   0  0  0  0  0  0  0  0  0  0  0  0
    1.0608    1.9389   -3.1556 O   0  0  0  0  0  0  0  0  0  0  0  0
    1.6369    4.2448   -3.4449 C   0  0  0  0  0  0  0  0  0  0  0  0
    1.1940    4.3651   -4.5725 O   0  0  0  0  0  0  0  0  0  0  0  0
  1  2  1  0  0  0  0
  2  3  2  0  0  0  0
  3  4  1  0  0  0  0
  3 52  1  0  0  0  0
  4  5  1  0  0  0  0
  5  6  1  1  0  0  0
  5 48  1  0  0  0  0
  6  7  1  0  0  0  0
  7  8  2  0  0  0  0
  7 12  1  0  0  0  0
  8  9  1  0  0  0  0
  8 25  1  0  0  0  0
  9 10  1  0  0  0  0
 10 11  2  0  0  0  0
 10 21  1  0  0  0  0
 11 12  1  0  0  0  0
 11 13  1  0  0  0  0
 13 14  1  0  0  0  0
 13 19  1  0  0  0  0
 14 15  1  0  0  0  0
 15 16  2  0  0  0  0
 15 17  1  0  0  0  0
 17 18  1  0  0  0  0
 18 19  1  0  0  0  0
 19 20  2  0  0  0  0
 20 21  1  0  0  0  0
 20 22  1  0  0  0  0
 22 23  1  0  0  0  0
 22 24  1  0  0  0  0
 23 24  1  0  0  0  0
 25 26  2  0  0  0  0
 25 31  1  0  0  0  0
 26 27  1  0  0  0  0
 27 28  1  0  0  0  0
 27 29  2  0  0  0  0
 29 30  1  0  0  0  0
 30 31  2  0  0  0  0
 30 41  1  0  0  0  0
 31 32  1  0  0  0  0
 32 33  2  0  0  0  0
 33 34  1  0  0  0  0
 33 40  1  0  0  0  0
 34 35  2  0  0  0  0
 34 36  1  0  0  0  0
 36 37  2  0  0  0  0
 38 36  1  6  0  0  0
 38 39  1  0  0  0  0
 38 43  1  0  0  0  0
 39 40  1  0  0  0  0
 40 41  2  0  0  0  0
 41 42  1  0  0  0  0
 43 44  1  6  0  0  0
 43 45  1  0  0  0  0
 43 46  1  0  0  0  0
 45 46  1  0  0  0  0
 46 47  2  0  0  0  0
 48 49  2  0  0  0  0
 48 50  1  0  0  0  0
 50 51  2  0  0  0  0
 50 52  1  0  0  0  0
 52 53  2  0  0  0  0
M  CHG  1  31   1
M  END
$$$$