
 OpenBabel09222001523D

 50 58  0  0  1  0  0  0  0  0999 V2000
    1.7614    0.4974    0.8583 O   0  0  0  0  0  0  0  0  0  0  0  0
    2.6652    0.2359    0.0716 C   0  0  0  0  0  0  0  0  0  0  0  0
    3.0461   -1.0412   -0.1724 N   0  0  0  0  0  0  0  0  0  0  0  0
    3.9238   -1.4356   -1.2490 C   0  0  0  0  0  0  0  0  0  0  0  0
    4.7554   -0.3097   -1.7550 C   0  0  0  0  0  0  0  0  0  0  0  0
    4.4490    1.0014   -1.4143 C   0  0  0  0  0  0  0  0  0  0  0  0
    3.3551    1.2223   -0.5652 N   0  0  0  0  0  0  0  0  0  0  0  0
    5.2245    2.0604   -1.9051 C   0  0  0  0  0  0  0  0  0  0  0  0
    4.9171    3.4900   -1.5947 C   0  0  0  0  0  0  0  0  0  0  0  0
    5.8333    4.4792   -2.2765 C   0  0  0  0  0  0  0  0  0  0  0  0
    6.9005    4.0358   -2.9780 C   0  0  0  0  0  0  0  0  0  0  0  0
    7.1765    2.6939   -3.1929 O   0  0  0  0  0  0  0  0  0  0  0  0
    6.3048    1.7388   -2.7178 C   0  0  0  0  0  0  0  0  0  0  0  0
    6.6064    0.4781   -3.0954 N   0  0  0  0  0  0  0  0  0  0  0  0
    5.8171   -0.4930   -2.6139 C   0  0  0  0  0  0  0  0  0  0  0  0
    6.1487   -1.7288   -3.0629 O   0  0  0  0  0  0  0  0  0  0  0  0
    7.7921    4.9310   -3.7419 C   0  0  0  0  0  0  0  0  0  0  0  0
    7.3650    5.1204   -5.0094 N   0  0  0  0  0  0  0  0  0  0  0  0
    8.0148    5.9326   -5.7902 N   0  0  0  0  0  0  0  0  0  0  0  0
    9.0344    6.6344   -5.3694 N   0  0  0  0  0  0  0  0  0  0  0  0
    9.4982    6.4748   -4.1285 C   0  0  0  0  0  0  0  0  0  0  0  0
    8.9365    5.5625   -3.2376 C   0  0  0  0  0  0  0  0  0  0  0  0
    9.5615    5.3727   -1.9699 C   0  0  0  0  0  0  0  0  0  0  0  0
   10.6779    6.1452   -1.6054 C   0  0  0  0  0  0  0  0  0  0  0  0
   11.1445    7.1400   -2.4524 C   0  0  0  0  0  0  0  0  0  0  0  0
   10.5691    7.2652   -3.7168 C   0  0  0  0  0  0  0  0  0  0  0  0
   12.1486    8.0227   -2.1653 O   0  0  0  0  0  0  0  0  0  0  0  0
   12.6516    8.0435   -0.8227 C   0  0  2  0  0  0  0  0  0  0  0  0
   12.6710    6.6938   -0.1485 C   0  0  0  0  0  0  0  0  0  0  0  0
   13.6021    6.2635    0.5163 O   0  0  0  0  0  0  0  0  0  0  0  0
   11.4057    5.8889   -0.3546 C   0  0  0  0  0  0  0  0  0  0  0  0
   11.0414    5.0500    0.4518 O   0  0  0  0  0  0  0  0  0  0  0  0
   11.9199    9.0425    0.0179 C   0  0  1  0  0  0  0  0  0  0  0  0
   10.5063    8.8035    0.2256 O   0  0  0  0  0  0  0  0  0  0  0  0
   12.6471    9.4621    1.1760 O   0  0  0  0  0  0  0  0  0  0  0  0
   12.3665   10.4191    0.2646 C   0  0  0  0  0  0  0  0  0  0  0  0
   11.7267   11.4297    0.3974 O   0  0  0  0  0  0  0  0  0  0  0  0
    5.5516    5.8411   -2.1673 O   0  0  0  0  0  0  0  0  0  0  0  0
    4.1662    6.1950   -2.1270 C   0  0  1  0  0  0  0  0  0  0  0  0
    3.6571    6.2222   -0.7932 O   0  0  0  0  0  0  0  0  0  0  0  0
    4.2380    7.2430    0.0264 C   0  0  3  0  0  0  0  0  0  0  0  0
    3.6628    7.1182    1.4048 C   0  0  0  0  0  0  0  0  0  0  0  0
    3.9420    5.8783    2.0610 O   0  0  0  0  0  0  0  0  0  0  0  0
    4.6117    7.0932    2.4707 O   0  0  0  0  0  0  0  0  0  0  0  0
    3.9702    8.6267   -0.5332 C   0  0  0  0  0  0  0  0  0  0  0  0
    4.1482    9.6746    0.0683 O   0  0  0  0  0  0  0  0  0  0  0  0
    3.4957    8.6242   -1.9644 C   0  0  0  0  0  0  0  0  0  0  0  0
    2.7583    9.5075   -2.3713 O   0  0  0  0  0  0  0  0  0  0  0  0
    3.9038    7.4948   -2.8689 C   0  0  0  0  0  0  0  0  0  0  0  0
    4.0119    7.6527   -4.0748 O   0  0  0  0  0  0  0  0  0  0  0  0
  1  2  2  0  0  0  0
  2  3  1  0  0  0  0
  2  7  1  0  0  0  0
  3  4  1  0  0  0  0
  4  5  1  0  0  0  0
  5  6  2  0  0  0  0
  5 15  1  0  0  0  0
  6  7  1  0  0  0  0
  6  8  1  0  0  0  0
  8  9  1  0  0  0  0
  8 13  2  0  0  0  0
  9 10  1  0  0  0  0
 10 11  2  0  0  0  0
 10 38  1  0  0  0  0
 11 12  1  0  0  0  0
 11 17  1  0  0  0  0
 12 13  1  0  0  0  0
 13 14  1  0  0  0  0
 14 15  2  0  0  0  0
 15 16  1  0  0  0  0
 17 18  2  0  0  0  0
 17 22  1  0  0  0  0
 18 19  1  0  0  0  0
 19 20  2  0  0  0  0
 20 21  1  0  0  0  0
 21 22  2  0  0  0  0
 21 26  1  0  0  0  0
 22 23  1  0  0  0  0
 23 24  2  0  0  0  0
 24 25  1  0  0  0  0
 24 31  1  0  0  0  0
 25 26  2  0  0  0  0
 25 27  1  0  0  0  0
 28 27  1  6  0  0  0
 28 29  1  0  0  0  0
 28 33  1  0  0  0  0
 29 30  2  0  0  0  0
 29 31  1  0  0  0  0
 31 32  2  0  0  0  0
 33 34  1  1  0  0  0
 33 35  1  0  0  0  0
 33 36  1  0  0  0  0
 35 36  1  0  0  0  0
 36 37  2  0  0  0  0
 39 38  1  1  0  0  0
 39 40  1  0  0  0  0
 39 49  1  0  0  0  0
 40 41  1  0  0  0  0
 41 42  1  0  0  0  0
 41 45  1  0  0  0  0
 42 43  1  0  0  0  0
 42 44  1  0  0  0  0
 43 44  1  0  0  0  0
 45 46  2  0  0  0  0
 45 47  1  0  0  0  0
 47 48  2  0  0  0  0
 47 49  1  0  0  0  0
 49 50  2  0  0  0  0
M  END
$$$$