
 OpenBabel11222022373D

 54 63  0  0  1  0  0  0  0  0999 V2000
   -3.9104   -8.6492   -7.5931 O   0  0  0  0  0  0  0  0  0  0  0  0
   -4.5427   -7.5684   -8.1567 C   0  0  0  0  0  0  0  0  0  0  0  0
   -3.8842   -6.5076   -8.6403 C   0  0  0  0  0  0  0  0  0  0  0  0
   -2.5051   -6.4383   -8.5430 O   0  0  0  0  0  0  0  0  0  0  0  0
   -1.8499   -5.5762   -9.4571 C   0  0  2  0  0  0  0  0  0  0  0  0
   -0.4644   -5.3592   -9.0527 O   0  0  0  0  0  0  0  0  0  0  0  0
    0.3299   -6.4462   -8.7461 C   0  0  0  0  0  0  0  0  0  0  0  0
    1.3175   -6.3629   -7.8214 C   0  0  0  0  0  0  0  0  0  0  0  0
    2.2679   -7.3980   -7.6929 O   0  0  0  0  0  0  0  0  0  0  0  0
    2.3024   -8.4510   -8.6088 C   0  0  0  0  0  0  0  0  0  0  0  0
    1.3298   -8.6158   -9.5233 C   0  0  0  0  0  0  0  0  0  0  0  0
    0.1700   -7.6698   -9.6184 C   0  0  0  0  0  0  0  0  0  0  0  0
    1.3420   -9.7618  -10.5023 C   0  0  3  0  0  0  0  0  0  0  0  0
    1.3820   -9.2280  -11.8149 O   0  0  0  0  0  0  0  0  0  0  0  0
    1.3499  -10.1465  -12.8232 C   0  0  0  0  0  0  0  0  0  0  0  0
    1.0574   -9.8405  -13.9654 O   0  0  0  0  0  0  0  0  0  0  0  0
    1.6197  -11.4195  -12.4382 O   0  0  0  0  0  0  0  0  0  0  0  0
    2.6022  -11.6324  -11.4348 C   0  0  3  0  0  0  0  0  0  0  0  0
    2.5688  -10.5827  -10.3789 C   0  0  0  0  0  0  0  0  0  0  0  0
    3.5209  -10.3514   -9.4496 C   0  0  0  0  0  0  0  0  0  0  0  0
    3.3738   -9.3148   -8.5421 O   0  3  0  0  0  0  0  0  0  0  0  0
    4.7747  -11.1341   -9.3413 C   0  0  0  0  0  0  0  0  0  0  0  0
    5.9670  -10.7016  -10.0096 O   0  0  0  0  0  0  0  0  0  0  0  0
    5.8812  -10.6247   -8.5741 O   0  0  0  0  0  0  0  0  0  0  0  0
    2.2978  -12.8315  -10.7496 O   0  0  0  0  0  0  0  0  0  0  0  0
    1.6489   -5.1722   -6.9541 C   0  0  0  0  0  0  0  0  0  0  0  0
    2.9900   -5.0212   -6.7988 N   0  0  0  0  0  0  0  0  0  0  0  0
    3.4614   -3.9795   -6.1251 N   0  3  0  0  0  0  0  0  0  0  0  0
    4.7953   -3.8543   -5.9846 F   0  0  0  0  0  0  0  0  0  0  0  0
    2.6715   -3.0439   -5.5970 C   0  0  0  0  0  0  0  0  0  0  0  0
    1.2947   -3.1415   -5.7048 C   0  0  0  0  0  0  0  0  0  0  0  0
    0.7351   -4.2570   -6.3579 C   0  0  0  0  0  0  0  0  0  0  0  0
   -0.6827   -4.3205   -6.3536 C   0  0  0  0  0  0  0  0  0  0  0  0
   -1.4764   -3.2395   -5.9186 C   0  0  0  0  0  0  0  0  0  0  0  0
   -0.8930   -2.1348   -5.3317 C   0  0  0  0  0  0  0  0  0  0  0  0
    0.4858   -2.1183   -5.1811 C   0  0  0  0  0  0  0  0  0  0  0  0
    1.0730   -1.0733   -4.5811 F   0  0  0  0  0  0  0  0  0  0  0  0
   -1.6228   -1.0660   -4.8909 O   0  0  0  0  0  0  0  0  0  0  0  0
   -2.7797   -0.7912   -5.7214 C   0  0  1  0  0  0  0  0  0  0  0  0
   -3.6798   -1.9227   -5.9706 C   0  0  0  0  0  0  0  0  0  0  0  0
   -4.8891   -1.8448   -6.1006 O   0  0  0  0  0  0  0  0  0  0  0  0
   -2.9238   -3.2224   -6.1815 C   0  0  0  0  0  0  0  0  0  0  0  0
   -3.4574   -4.2063   -6.6747 O   0  0  0  0  0  0  0  0  0  0  0  0
   -3.3721    0.4731   -5.5517 O   0  0  0  0  0  0  0  0  0  0  0  0
   -2.6634    0.2463   -6.8099 C   0  0  1  0  0  0  0  0  0  0  0  0
   -1.2230    0.5964   -6.8770 O   0  0  0  0  0  0  0  0  0  0  0  0
   -2.1051    1.5255   -7.1900 C   0  0  0  0  0  0  0  0  0  0  0  0
   -2.1985    2.2242   -8.1713 O   0  0  0  0  0  0  0  0  0  0  0  0
   -2.4278   -4.1719   -9.4950 C   0  0  0  0  0  0  0  0  0  0  0  0
   -1.7696   -3.1373   -9.4537 O   0  0  0  0  0  0  0  0  0  0  0  0
   -3.9296   -4.1355   -9.5111 C   0  0  0  0  0  0  0  0  0  0  0  0
   -4.4893   -3.0743   -9.7356 O   0  0  0  0  0  0  0  0  0  0  0  0
   -4.7065   -5.3960   -9.2057 C   0  0  0  0  0  0  0  0  0  0  0  0
   -5.8969   -5.4872   -9.4527 O   0  0  0  0  0  0  0  0  0  0  0  0
  1  2  1  0  0  0  0
  2  3  2  0  0  0  0
  3  4  1  0  0  0  0
  3 53  1  0  0  0  0
  4  5  1  0  0  0  0
  5  6  1  1  0  0  0
  5 49  1  0  0  0  0
  6  7  1  0  0  0  0
  7  8  2  0  0  0  0
  7 12  1  0  0  0  0
  8  9  1  0  0  0  0
  8 26  1  0  0  0  0
  9 10  1  0  0  0  0
 10 11  2  0  0  0  0
 10 21  1  0  0  0  0
 11 12  1  0  0  0  0
 11 13  1  0  0  0  0
 13 14  1  0  0  0  0
 13 19  1  0  0  0  0
 14 15  1  0  0  0  0
 15 16  2  0  0  0  0
 15 17  1  0  0  0  0
 17 18  1  0  0  0  0
 18 19  1  0  0  0  0
 18 25  1  0  0  0  0
 19 20  2  0  0  0  0
 20 21  1  0  0  0  0
 20 22  1  0  0  0  0
 22 23  1  0  0  0  0
 22 24  1  0  0  0  0
 23 24  1  0  0  0  0
 26 27  2  0  0  0  0
 26 32  1  0  0  0  0
 27 28  1  0  0  0  0
 28 29  1  0  0  0  0
 28 30  2  0  0  0  0
 30 31  1  0  0  0  0
 31 32  2  0  0  0  0
 31 36  1  0  0  0  0
 32 33  1  0  0  0  0
 33 34  2  0  0  0  0
 34 35  1  0  0  0  0
 34 42  1  0  0  0  0
 35 36  2  0  0  0  0
 35 38  1  0  0  0  0
 36 37  1  0  0  0  0
 39 38  1  1  0  0  0
 39 40  1  0  0  0  0
 39 44  1  0  0  0  0
 39 45  1  0  0  0  0
 40 41  2  0  0  0  0
 40 42  1  0  0  0  0
 42 43  2  0  0  0  0
 45 44  1  1  0  0  0
 45 46  1  0  0  0  0
 45 47  1  0  0  0  0
 46 47  1  0  0  0  0
 47 48  2  0  0  0  0
 49 50  2  0  0  0  0
 49 51  1  0  0  0  0
 51 52  2  0  0  0  0
 51 53  1  0  0  0  0
 53 54  2  0  0  0  0
M  CHG  2  21   1  28   1
M  END
$$$$