
 OpenBabel09222010303D

 51 59  0  0  1  0  0  0  0  0999 V2000
   -1.8347   -3.2482    2.9265 O   0  0  0  0  0  0  0  0  0  0  0  0
   -0.8176   -2.8416    2.1009 C   0  0  0  0  0  0  0  0  0  0  0  0
    0.4004   -2.4804    2.5242 C   0  0  0  0  0  0  0  0  0  0  0  0
    0.6905   -2.4963    3.8815 O   0  0  0  0  0  0  0  0  0  0  0  0
    2.0760   -2.5256    4.2403 C   0  0  2  0  0  0  0  0  0  0  0  0
    2.2377   -2.3936    5.6560 O   0  0  0  0  0  0  0  0  0  0  0  0
    2.2161   -3.5986    6.3454 C   0  0  0  0  0  0  0  0  0  0  0  0
    2.3649   -3.6417    7.6870 C   0  0  0  0  0  0  0  0  0  0  0  0
    2.3772   -4.8354    8.4063 O   0  0  0  0  0  0  0  0  0  0  0  0
    2.2839   -5.9987    7.6704 C   0  0  0  0  0  0  0  0  0  0  0  0
    2.1435   -5.9485    6.3011 C   0  0  0  0  0  0  0  0  0  0  0  0
    2.0601   -4.7735    5.6164 O   0  0  0  0  0  0  0  0  0  0  0  0
    2.1095   -7.1460    5.6041 C   0  0  0  0  0  0  0  0  0  0  0  0
    2.0150   -7.1458    4.2094 N   0  0  0  0  0  0  0  0  0  0  0  0
    1.9392   -8.2605    3.4410 C   0  0  0  0  0  0  0  0  0  0  0  0
    1.8475   -8.1891    2.2208 O   0  0  0  0  0  0  0  0  0  0  0  0
    1.9515   -9.4514    4.0847 N   0  0  0  0  0  0  0  0  0  0  0  0
    2.2216   -9.6307    5.4905 C   0  0  0  0  0  0  0  0  0  0  0  0
    2.1934   -8.3590    6.2824 C   0  0  0  0  0  0  0  0  0  0  0  0
    2.3152   -8.3385    7.6822 C   0  0  0  0  0  0  0  0  0  0  0  0
    2.3738   -7.1549    8.3627 N   0  0  0  0  0  0  0  0  0  0  0  0
    2.4198   -9.6192    8.4777 C   0  0  0  0  0  0  0  0  0  0  0  0
    1.8377   -9.6555    9.7894 O   0  0  0  0  0  0  0  0  0  0  0  0
    1.2068  -10.3569    8.6988 O   0  0  0  0  0  0  0  0  0  0  0  0
    2.4922   -2.4443    8.5366 C   0  0  0  0  0  0  0  0  0  0  0  0
    1.2979   -1.9368    8.9412 N   0  0  0  0  0  0  0  0  0  0  0  0
    1.3207   -0.8810    9.7772 C   0  0  0  0  0  0  0  0  0  0  0  0
    2.4811   -0.2869   10.2356 C   0  0  0  0  0  0  0  0  0  0  0  0
    3.7102   -0.8079    9.8284 C   0  0  0  0  0  0  0  0  0  0  0  0
    3.7422   -1.9210    8.9524 C   0  0  0  0  0  0  0  0  0  0  0  0
    5.0090   -2.4314    8.5793 C   0  0  0  0  0  0  0  0  0  0  0  0
    6.1876   -1.8673    9.0863 C   0  0  0  0  0  0  0  0  0  0  0  0
    6.1386   -0.7972    9.9755 C   0  0  0  0  0  0  0  0  0  0  0  0
    4.9049   -0.2487   10.3145 C   0  0  0  0  0  0  0  0  0  0  0  0
    7.2292   -0.2378   10.5875 O   0  0  0  0  0  0  0  0  0  0  0  0
    8.4123   -1.0484   10.6218 C   0  0  2  0  0  0  0  0  0  0  0  0
    8.6979   -1.7164    9.3002 C   0  0  0  0  0  0  0  0  0  0  0  0
    9.7819   -1.7088    8.7349 O   0  0  0  0  0  0  0  0  0  0  0  0
    7.4975   -2.4156    8.7040 C   0  0  0  0  0  0  0  0  0  0  0  0
    7.6218   -3.3721    7.9556 O   0  0  0  0  0  0  0  0  0  0  0  0
    8.3484   -2.0679   11.7216 C   0  0  1  0  0  0  0  0  0  0  0  0
    7.2848   -3.0357   11.6683 O   0  0  0  0  0  0  0  0  0  0  0  0
    9.6370   -2.5179   12.1758 O   0  0  0  0  0  0  0  0  0  0  0  0
    8.9108   -1.8176   13.0645 C   0  0  0  0  0  0  0  0  0  0  0  0
    8.4946   -2.1463   14.1496 O   0  0  0  0  0  0  0  0  0  0  0  0
    2.8412   -1.4325    3.5242 C   0  0  0  0  0  0  0  0  0  0  0  0
    3.5053   -0.5345    4.0121 O   0  0  0  0  0  0  0  0  0  0  0  0
    2.7216   -1.6106    2.0408 C   0  0  0  0  0  0  0  0  0  0  0  0
    3.7135   -1.5454    1.3339 O   0  0  0  0  0  0  0  0  0  0  0  0
    1.3771   -2.0237    1.4871 C   0  0  0  0  0  0  0  0  0  0  0  0
    1.1442   -1.9791    0.2907 O   0  0  0  0  0  0  0  0  0  0  0  0
  1  2  1  0  0  0  0
  2  3  2  0  0  0  0
  3  4  1  0  0  0  0
  3 50  1  0  0  0  0
  4  5  1  0  0  0  0
  5  6  1  1  0  0  0
  5 46  1  0  0  0  0
  6  7  1  0  0  0  0
  7  8  2  0  0  0  0
  7 12  1  0  0  0  0
  8  9  1  0  0  0  0
  8 25  1  0  0  0  0
  9 10  1  0  0  0  0
 10 11  2  0  0  0  0
 10 21  1  0  0  0  0
 11 12  1  0  0  0  0
 11 13  1  0  0  0  0
 13 14  1  0  0  0  0
 13 19  2  0  0  0  0
 14 15  1  0  0  0  0
 15 16  2  0  0  0  0
 15 17  1  0  0  0  0
 17 18  1  0  0  0  0
 18 19  1  0  0  0  0
 19 20  1  0  0  0  0
 20 21  2  0  0  0  0
 20 22  1  0  0  0  0
 22 23  1  0  0  0  0
 22 24  1  0  0  0  0
 23 24  1  0  0  0  0
 25 26  2  0  0  0  0
 25 30  1  0  0  0  0
 26 27  1  0  0  0  0
 27 28  2  0  0  0  0
 28 29  1  0  0  0  0
 29 30  2  0  0  0  0
 29 34  1  0  0  0  0
 30 31  1  0  0  0  0
 31 32  2  0  0  0  0
 32 33  1  0  0  0  0
 32 39  1  0  0  0  0
 33 34  2  0  0  0  0
 33 35  1  0  0  0  0
 36 35  1  6  0  0  0
 36 37  1  0  0  0  0
 36 41  1  0  0  0  0
 37 38  2  0  0  0  0
 37 39  1  0  0  0  0
 39 40  2  0  0  0  0
 41 42  1  6  0  0  0
 41 43  1  0  0  0  0
 41 44  1  0  0  0  0
 43 44  1  0  0  0  0
 44 45  2  0  0  0  0
 46 47  2  0  0  0  0
 46 48  1  0  0  0  0
 48 49  2  0  0  0  0
 48 50  1  0  0  0  0
 50 51  2  0  0  0  0
M  END
$$$$