
 OpenBabel11152012403D

 53 61  0  0  1  0  0  0  0  0999 V2000
    4.5336    6.9377    0.8730 O   0  0  0  0  0  0  0  0  0  0  0  0
    3.7129    6.5742   -0.1633 C   0  0  0  0  0  0  0  0  0  0  0  0
    2.9014    5.5117   -0.1021 C   0  0  0  0  0  0  0  0  0  0  0  0
    2.8876    4.7031    1.0206 O   0  0  0  0  0  0  0  0  0  0  0  0
    1.6334    4.0816    1.3011 C   0  0  2  0  0  0  0  0  0  0  0  0
    1.6701    3.3556    2.5340 O   0  0  0  0  0  0  0  0  0  0  0  0
    1.9167    4.1060    3.6810 C   0  0  0  0  0  0  0  0  0  0  0  0
    2.5310    3.5607    4.7515 C   0  0  0  0  0  0  0  0  0  0  0  0
    2.7718    4.2566    5.9336 O   0  0  0  0  0  0  0  0  0  0  0  0
    2.2885    5.5470    6.0698 C   0  0  0  0  0  0  0  0  0  0  0  0
    1.6312    6.1715    5.0798 C   0  0  0  0  0  0  0  0  0  0  0  0
    1.4174    5.5294    3.7475 C   0  0  0  0  0  0  0  0  0  0  0  0
    1.0989    7.5689    5.2740 C   0  0  3  0  0  0  0  0  0  0  0  0
   -0.3052    7.5175    5.0189 O   0  0  0  0  0  0  0  0  0  0  0  0
   -1.1607    8.4634    5.4729 C   0  0  0  0  0  0  0  0  0  0  0  0
   -2.3373    8.4629    5.1353 O   0  0  0  0  0  0  0  0  0  0  0  0
   -0.6781    9.3891    6.3368 O   0  0  0  0  0  0  0  0  0  0  0  0
    0.6805    9.4478    6.7466 C   0  0  3  0  0  0  0  0  0  0  0  0
    1.3291    8.1265    6.6361 C   0  0  0  0  0  0  0  0  0  0  0  0
    2.0196    7.4482    7.5817 C   0  0  0  0  0  0  0  0  0  0  0  0
    2.4896    6.1794    7.2704 N   0  0  0  0  0  0  0  0  0  0  0  0
    2.3227    7.9452    8.9473 C   0  0  0  0  0  0  0  0  0  0  0  0
    3.1252    7.1902    9.8743 O   0  0  0  0  0  0  0  0  0  0  0  0
    3.6348    8.4104    9.3028 O   0  0  0  0  0  0  0  0  0  0  0  0
    1.3739   10.3712    5.9276 O   0  0  0  0  0  0  0  0  0  0  0  0
    3.0152    2.1728    4.7827 C   0  0  0  0  0  0  0  0  0  0  0  0
    4.2794    2.0182    4.3379 N   0  0  0  0  0  0  0  0  0  0  0  0
    4.8212    0.8386    4.3794 N   0  0  0  0  0  0  0  0  0  0  0  0
    4.1895   -0.2037    4.8690 N   0  0  0  0  0  0  0  0  0  0  0  0
    2.9341   -0.0972    5.3325 C   0  0  0  0  0  0  0  0  0  0  0  0
    2.2592    1.1189    5.2972 C   0  0  0  0  0  0  0  0  0  0  0  0
    0.9210    1.2035    5.7747 C   0  0  0  0  0  0  0  0  0  0  0  0
    0.2860    0.0805    6.3136 C   0  0  0  0  0  0  0  0  0  0  0  0
   -1.1049    0.1584    6.7812 C   0  0  0  0  0  0  0  0  0  0  0  0
   -1.7669    1.1784    6.6864 O   0  0  0  0  0  0  0  0  0  0  0  0
   -1.6827   -1.1076    7.3741 C   0  0  0  0  0  0  0  0  0  0  0  0
   -2.8897   -1.2846    7.4515 O   0  0  0  0  0  0  0  0  0  0  0  0
   -0.6427   -2.0827    7.8708 C   0  0  1  0  0  0  0  0  0  0  0  0
    0.4671   -2.2633    6.9780 O   0  0  0  0  0  0  0  0  0  0  0  0
    0.9692   -1.1220    6.4061 C   0  0  0  0  0  0  0  0  0  0  0  0
    2.2681   -1.2009    5.8878 C   0  0  0  0  0  0  0  0  0  0  0  0
    2.9232   -2.4128    5.9509 O   0  0  0  0  0  0  0  0  0  0  0  0
   -0.1667   -1.7145    9.2414 C   0  0  1  0  0  0  0  0  0  0  0  0
    0.4433   -0.4092    9.3874 O   0  0  0  0  0  0  0  0  0  0  0  0
   -1.0314   -2.1189   10.3021 O   0  0  0  0  0  0  0  0  0  0  0  0
    0.1870   -2.6908   10.2699 C   0  0  0  0  0  0  0  0  0  0  0  0
    1.0779   -2.6632   11.0920 O   0  0  0  0  0  0  0  0  0  0  0  0
    1.2846    3.1752    0.1349 C   0  0  0  0  0  0  0  0  0  0  0  0
    1.0563    1.9769    0.1661 O   0  0  0  0  0  0  0  0  0  0  0  0
    1.2083    3.9577   -1.1507 C   0  0  0  0  0  0  0  0  0  0  0  0
    0.4224    3.6302   -2.0254 O   0  0  0  0  0  0  0  0  0  0  0  0
    2.0499    5.2119   -1.2900 C   0  0  0  0  0  0  0  0  0  0  0  0
    1.9907    5.9192   -2.2827 O   0  0  0  0  0  0  0  0  0  0  0  0
  1  2  1  0  0  0  0
  2  3  2  0  0  0  0
  3  4  1  0  0  0  0
  3 52  1  0  0  0  0
  4  5  1  0  0  0  0
  5  6  1  1  0  0  0
  5 48  1  0  0  0  0
  6  7  1  0  0  0  0
  7  8  2  0  0  0  0
  7 12  1  0  0  0  0
  8  9  1  0  0  0  0
  8 26  1  0  0  0  0
  9 10  1  0  0  0  0
 10 11  2  0  0  0  0
 10 21  1  0  0  0  0
 11 12  1  0  0  0  0
 11 13  1  0  0  0  0
 13 14  1  0  0  0  0
 13 19  1  0  0  0  0
 14 15  1  0  0  0  0
 15 16  2  0  0  0  0
 15 17  1  0  0  0  0
 17 18  1  0  0  0  0
 18 19  1  0  0  0  0
 18 25  1  0  0  0  0
 19 20  2  0  0  0  0
 20 21  1  0  0  0  0
 20 22  1  0  0  0  0
 22 23  1  0  0  0  0
 22 24  1  0  0  0  0
 23 24  1  0  0  0  0
 26 27  2  0  0  0  0
 26 31  1  0  0  0  0
 27 28  1  0  0  0  0
 28 29  2  0  0  0  0
 29 30  1  0  0  0  0
 30 31  2  0  0  0  0
 30 41  1  0  0  0  0
 31 32  1  0  0  0  0
 32 33  2  0  0  0  0
 33 34  1  0  0  0  0
 33 40  1  0  0  0  0
 34 35  2  0  0  0  0
 34 36  1  0  0  0  0
 36 37  2  0  0  0  0
 38 36  1  6  0  0  0
 38 39  1  0  0  0  0
 38 43  1  0  0  0  0
 39 40  1  0  0  0  0
 40 41  2  0  0  0  0
 41 42  1  0  0  0  0
 43 44  1  1  0  0  0
 43 45  1  0  0  0  0
 43 46  1  0  0  0  0
 45 46  1  0  0  0  0
 46 47  2  0  0  0  0
 48 49  2  0  0  0  0
 48 50  1  0  0  0  0
 50 51  2  0  0  0  0
 50 52  1  0  0  0  0
 52 53  2  0  0  0  0
M  END
$$$$