
 OpenBabel11222022323D

 54 64  0  0  1  0  0  0  0  0999 V2000
    3.9176   -2.8373   -1.0888 O   0  0  0  0  0  0  0  0  0  0  0  0
    4.9061   -2.4444   -0.2219 C   0  0  0  0  0  0  0  0  0  0  0  0
    4.8402   -2.6620    1.0978 C   0  0  0  0  0  0  0  0  0  0  0  0
    3.7156   -3.2544    1.6666 O   0  0  0  0  0  0  0  0  0  0  0  0
    3.9970   -4.1565    2.7244 C   0  0  2  0  0  0  0  0  0  0  0  0
    2.7807   -4.7659    3.2547 O   0  0  0  0  0  0  0  0  0  0  0  0
    2.3721   -5.9770    2.6979 C   0  0  0  0  0  0  0  0  0  0  0  0
    1.6085   -6.8678    3.3844 C   0  0  0  0  0  0  0  0  0  0  0  0
    1.2490   -8.1214    2.8195 O   0  0  0  0  0  0  0  0  0  0  0  0
    1.8137   -8.5312    1.5818 C   0  0  0  0  0  0  0  0  0  0  0  0
    2.5572   -7.6787    0.8553 C   0  0  0  0  0  0  0  0  0  0  0  0
    2.7848   -6.2654    1.2696 C   0  0  0  0  0  0  0  0  0  0  0  0
    3.2209   -8.0670   -0.4432 C   0  0  3  0  0  0  0  0  0  0  0  0
    4.6197   -7.8660   -0.3075 O   0  0  0  0  0  0  0  0  0  0  0  0
    5.3194   -8.0351   -1.4684 C   0  0  0  0  0  0  0  0  0  0  0  0
    6.4054   -7.5147   -1.6458 O   0  0  0  0  0  0  0  0  0  0  0  0
    4.6749   -8.7909   -2.3924 O   0  0  0  0  0  0  0  0  0  0  0  0
    3.9327   -9.8958   -1.8963 C   0  0  3  0  0  0  0  0  0  0  0  0
    3.0674   -9.5059   -0.7349 C   0  0  0  0  0  0  0  0  0  0  0  0
    2.2819  -10.3173    0.0085 C   0  0  0  0  0  0  0  0  0  0  0  0
    1.5953   -9.8216    1.1203 O   0  3  0  0  0  0  0  0  0  0  0  0
    2.0933  -11.7600   -0.2864 C   0  0  0  0  0  0  0  0  0  0  0  0
    1.2409  -12.5604    0.5524 O   0  0  0  0  0  0  0  0  0  0  0  0
    0.8501  -12.2525   -0.7994 O   0  0  0  0  0  0  0  0  0  0  0  0
    3.0546  -10.3477   -2.9000 O   0  0  0  0  0  0  0  0  0  0  0  0
    1.0148   -6.5870    4.7487 C   0  0  0  0  0  0  0  0  0  0  0  0
   -0.2406   -5.9610    4.7993 C   0  0  0  0  0  0  0  0  0  0  0  0
   -0.8222   -5.6642    5.9734 N   0  3  0  0  0  0  0  0  0  0  0  0
   -2.0404   -5.0848    5.9853 F   0  0  0  0  0  0  0  0  0  0  0  0
   -0.2558   -5.9306    7.1367 N   0  0  0  0  0  0  0  0  0  0  0  0
    0.9372   -6.5187    7.1796 C   0  0  0  0  0  0  0  0  0  0  0  0
    1.6331   -6.8895    6.0045 C   0  0  0  0  0  0  0  0  0  0  0  0
    2.8877   -7.5356    6.1909 C   0  0  0  0  0  0  0  0  0  0  0  0
    3.4195   -7.7953    7.4815 C   0  0  0  0  0  0  0  0  0  0  0  0
    2.7372   -7.4198    8.6194 C   0  0  0  0  0  0  0  0  0  0  0  0
    1.5058   -6.7832    8.4403 C   0  0  0  0  0  0  0  0  0  0  0  0
    0.8382   -6.4213    9.5483 F   0  0  0  0  0  0  0  0  0  0  0  0
    3.1896   -7.5936    9.9113 O   0  0  0  0  0  0  0  0  0  0  0  0
    4.3626   -8.4116   10.1542 C   0  0  1  0  0  0  0  0  0  0  0  0
    5.1580   -8.8728    9.0189 C   0  0  0  0  0  0  0  0  0  0  0  0
    6.1186   -9.5785    9.2479 O   0  0  0  0  0  0  0  0  0  0  0  0
    4.7141   -8.4562    7.6354 C   0  0  0  0  0  0  0  0  0  0  0  0
    5.4178   -8.6787    6.6696 O   0  0  0  0  0  0  0  0  0  0  0  0
    5.2252   -7.9867   11.2012 O   0  3  3  0  0  0  0  0  0  0  0  0
    4.4548   -9.1357   11.4230 C   0  0  1  0  0  0  0  0  0  0  0  0
    4.8814   -8.3837   12.5353 O   0  3  0  0  0  0  0  0  0  0  0  0
    3.7630   -9.1337   12.6433 C   0  0  0  0  0  0  0  0  0  0  0  0
    3.4530  -10.0130   13.4277 O   0  0  0  0  0  0  0  0  0  0  0  0
    4.7642   -3.4842    3.8427 C   0  0  0  0  0  0  0  0  0  0  0  0
    4.5045   -3.5789    5.0351 O   0  0  0  0  0  0  0  0  0  0  0  0
    6.0195   -2.8297    3.3238 C   0  0  0  0  0  0  0  0  0  0  0  0
    7.0438   -2.9325    3.9795 O   0  0  0  0  0  0  0  0  0  0  0  0
    6.0162   -2.2449    1.9241 C   0  0  0  0  0  0  0  0  0  0  0  0
    6.9272   -1.5436    1.5241 O   0  0  0  0  0  0  0  0  0  0  0  0
  1  2  1  0  0  0  0
  2  3  2  0  0  0  0
  3  4  1  0  0  0  0
  3 53  1  0  0  0  0
  4  5  1  0  0  0  0
  5  6  1  1  0  0  0
  5 49  1  0  0  0  0
  6  7  1  0  0  0  0
  7  8  2  0  0  0  0
  7 12  1  0  0  0  0
  8  9  1  0  0  0  0
  8 26  1  0  0  0  0
  9 10  1  0  0  0  0
 10 11  2  0  0  0  0
 10 21  1  0  0  0  0
 11 12  1  0  0  0  0
 11 13  1  0  0  0  0
 13 14  1  0  0  0  0
 13 19  1  0  0  0  0
 14 15  1  0  0  0  0
 15 16  2  0  0  0  0
 15 17  1  0  0  0  0
 17 18  1  0  0  0  0
 18 19  1  0  0  0  0
 18 25  1  0  0  0  0
 19 20  2  0  0  0  0
 20 21  1  0  0  0  0
 20 22  1  0  0  0  0
 22 23  1  0  0  0  0
 22 24  1  0  0  0  0
 23 24  1  0  0  0  0
 26 27  2  0  0  0  0
 26 32  1  0  0  0  0
 27 28  1  0  0  0  0
 28 29  1  0  0  0  0
 28 30  2  0  0  0  0
 30 31  1  0  0  0  0
 31 32  2  0  0  0  0
 31 36  1  0  0  0  0
 32 33  1  0  0  0  0
 33 34  2  0  0  0  0
 34 35  1  0  0  0  0
 34 42  1  0  0  0  0
 35 36  2  0  0  0  0
 35 38  1  0  0  0  0
 36 37  1  0  0  0  0
 39 38  1  6  0  0  0
 39 40  1  0  0  0  0
 39 44  1  0  0  0  0
 39 45  1  0  0  0  0
 40 41  2  0  0  0  0
 40 42  1  0  0  0  0
 42 43  2  0  0  0  0
 44 45  1  0  0  0  0
 44 46  1  0  0  0  0
 45 46  1  1  0  0  0
 45 47  1  0  0  0  0
 46 47  1  0  0  0  0
 47 48  2  0  0  0  0
 49 50  2  0  0  0  0
 49 51  1  0  0  0  0
 51 52  2  0  0  0  0
 51 53  1  0  0  0  0
 53 54  2  0  0  0  0
M  CHG  4  21   1  28   1  44   1  46   1
M  END
$$$$