
 OpenBabel11262011513D

 53 61  0  0  1  0  0  0  0  0999 V2000
    7.3872    0.0144    5.7445 F   0  0  0  0  0  0  0  0  0  0  0  0
    7.2078    0.9370    4.7806 C   0  0  0  0  0  0  0  0  0  0  0  0
    6.0860    0.9798    4.0579 C   0  0  0  0  0  0  0  0  0  0  0  0
    5.0797    0.0498    4.2458 O   0  0  0  0  0  0  0  0  0  0  0  0
    3.7780    0.6057    4.1030 C   0  0  2  0  0  0  0  0  0  0  0  0
    2.7434   -0.3923    4.2900 O   0  0  0  0  0  0  0  0  0  0  0  0
    2.7072   -1.0664    5.5007 C   0  0  0  0  0  0  0  0  0  0  0  0
    2.2516   -2.3364    5.5788 C   0  0  0  0  0  0  0  0  0  0  0  0
    2.2328   -3.0669    6.7693 O   0  0  0  0  0  0  0  0  0  0  0  0
    2.6782   -2.4600    7.9439 C   0  0  0  0  0  0  0  0  0  0  0  0
    3.0314   -1.1642    7.9790 C   0  0  0  0  0  0  0  0  0  0  0  0
    3.1070   -0.3228    6.7501 C   0  0  0  0  0  0  0  0  0  0  0  0
    3.4698   -0.5148    9.2632 C   0  0  3  0  0  0  0  0  0  0  0  0
    2.5223    0.5463    9.5721 N   0  0  0  0  0  0  0  0  0  0  0  0
    2.7272    1.2384   10.7187 C   0  0  0  0  0  0  0  0  0  0  0  0
    2.4828    2.4942   10.8117 N   0  0  0  0  0  0  0  0  0  0  0  0
    3.1280    0.5108   11.7806 N   0  0  0  0  0  0  0  0  0  0  0  0
    3.9157   -0.6974   11.6892 C   0  0  0  0  0  0  0  0  0  0  0  0
    3.5144   -1.4348   10.4475 C   0  0  0  0  0  0  0  0  0  0  0  0
    3.1976   -2.7445   10.3258 C   0  0  0  0  0  0  0  0  0  0  0  0
    2.7705   -3.2222    9.0859 N   0  0  0  0  0  0  0  0  0  0  0  0
    3.2692   -3.7248   11.4366 C   0  0  0  0  0  0  0  0  0  0  0  0
    2.1478   -3.9730   12.2967 O   0  0  0  0  0  0  0  0  0  0  0  0
    2.5933   -4.9930   11.3810 O   0  0  0  0  0  0  0  0  0  0  0  0
    1.6874   -3.0541    4.4138 C   0  0  0  0  0  0  0  0  0  0  0  0
    0.3316   -2.8901    4.1424 C   0  0  0  0  0  0  0  0  0  0  0  0
   -0.2346   -3.4975    3.0936 N   0  3  0  0  0  0  0  0  0  0  0  0
   -1.5480   -3.3151    2.8571 F   0  0  0  0  0  0  0  0  0  0  0  0
    0.4388   -4.2828    2.2756 N   0  0  0  0  0  0  0  0  0  0  0  0
    1.7397   -4.4969    2.4896 C   0  0  0  0  0  0  0  0  0  0  0  0
    2.4293   -3.8965    3.5623 C   0  0  0  0  0  0  0  0  0  0  0  0
    3.8007   -4.1930    3.7355 C   0  0  0  0  0  0  0  0  0  0  0  0
    4.4497   -5.1019    2.8876 C   0  0  0  0  0  0  0  0  0  0  0  0
    5.8420   -5.4878    3.1358 C   0  0  0  0  0  0  0  0  0  0  0  0
    6.4732   -5.0417    4.0772 O   0  0  0  0  0  0  0  0  0  0  0  0
    6.4183   -6.5130    2.1889 C   0  0  0  0  0  0  0  0  0  0  0  0
    7.2415   -7.3264    2.5787 O   0  0  0  0  0  0  0  0  0  0  0  0
    5.8005   -6.4812    0.8120 C   0  0  1  0  0  0  0  0  0  0  0  0
    4.3599   -6.4993    0.8911 O   0  0  0  0  0  0  0  0  0  0  0  0
    3.7787   -5.6728    1.8165 C   0  0  0  0  0  0  0  0  0  0  0  0
    2.4323   -5.3564    1.6363 C   0  0  0  0  0  0  0  0  0  0  0  0
    1.7742   -5.9018    0.5992 F   0  0  0  0  0  0  0  0  0  0  0  0
    6.3331   -5.3614   -0.0499 C   0  0  1  0  0  0  0  0  0  0  0  0
    7.7490   -5.3683   -0.3041 O   0  0  0  0  0  0  0  0  0  0  0  0
    5.5402   -5.0372   -1.2035 O   0  0  0  0  0  0  0  0  0  0  0  0
    5.6347   -4.0913   -0.2507 C   0  0  0  0  0  0  0  0  0  0  0  0
    4.7885   -3.5106    0.3835 O   0  0  0  0  0  0  0  0  0  0  0  0
    3.5958    1.1605    2.6910 C   0  0  0  0  0  0  0  0  0  0  0  0
    2.5636    0.9660    2.0406 O   0  0  0  0  0  0  0  0  0  0  0  0
    4.7168    2.0245    2.1632 C   0  0  3  0  0  0  0  0  0  0  0  0
    5.9636    2.0397    3.0138 C   0  0  0  0  0  0  0  0  0  0  0  0
    6.8536    2.8726    2.8501 O   0  0  0  0  0  0  0  0  0  0  0  0
    5.0202    1.6825    0.8748 F   0  0  0  0  0  0  0  0  0  0  0  0
  1  2  1  0  0  0  0
  2  3  2  0  0  0  0
  3  4  1  0  0  0  0
  3 51  1  0  0  0  0
  4  5  1  0  0  0  0
  5  6  1  6  0  0  0
  5 48  1  0  0  0  0
  6  7  1  0  0  0  0
  7  8  2  0  0  0  0
  7 12  1  0  0  0  0
  8  9  1  0  0  0  0
  8 25  1  0  0  0  0
  9 10  1  0  0  0  0
 10 11  2  0  0  0  0
 10 21  1  0  0  0  0
 11 12  1  0  0  0  0
 11 13  1  0  0  0  0
 13 14  1  0  0  0  0
 13 19  1  0  0  0  0
 14 15  1  0  0  0  0
 15 16  2  0  0  0  0
 15 17  1  0  0  0  0
 17 18  1  0  0  0  0
 18 19  1  0  0  0  0
 19 20  2  0  0  0  0
 20 21  1  0  0  0  0
 20 22  1  0  0  0  0
 22 23  1  0  0  0  0
 22 24  1  0  0  0  0
 23 24  1  0  0  0  0
 25 26  2  0  0  0  0
 25 31  1  0  0  0  0
 26 27  1  0  0  0  0
 27 28  1  0  0  0  0
 27 29  2  0  0  0  0
 29 30  1  0  0  0  0
 30 31  2  0  0  0  0
 30 41  1  0  0  0  0
 31 32  1  0  0  0  0
 32 33  2  0  0  0  0
 33 34  1  0  0  0  0
 33 40  1  0  0  0  0
 34 35  2  0  0  0  0
 34 36  1  0  0  0  0
 36 37  2  0  0  0  0
 38 36  1  1  0  0  0
 38 39  1  0  0  0  0
 38 43  1  0  0  0  0
 39 40  1  0  0  0  0
 40 41  2  0  0  0  0
 41 42  1  0  0  0  0
 43 44  1  6  0  0  0
 43 45  1  0  0  0  0
 43 46  1  0  0  0  0
 45 46  1  0  0  0  0
 46 47  2  0  0  0  0
 48 49  2  0  0  0  0
 48 50  1  0  0  0  0
 50 51  1  0  0  0  0
 50 53  1  0  0  0  0
 51 52  2  0  0  0  0
M  CHG  1  27   1
M  END
$$$$