
 OpenBabel09202015283D

 45 51  0  0  1  0  0  0  0  0999 V2000
    4.1969   -1.0091   -0.9331 O   0  0  0  0  0  0  0  0  0  0  0  0
    4.0791    0.3613   -0.5436 C   0  0  0  0  0  0  0  0  0  0  0  0
    3.1628    0.5220    0.6935 C   0  0  2  0  0  0  0  0  0  0  0  0
    1.8276    0.0331    0.4476 O   0  0  0  0  0  0  0  0  0  0  0  0
    1.1559    0.7898   -0.4772 C   0  0  0  0  0  0  0  0  0  0  0  0
    0.3487    0.0854   -1.3642 C   0  0  0  0  0  0  0  0  0  0  0  0
   -0.1422    0.7150   -2.5135 C   0  0  0  0  0  0  0  0  0  0  0  0
   -0.7676   -0.0351   -3.5109 C   0  0  0  0  0  0  0  0  0  0  0  0
   -1.1433    0.5979   -4.6811 C   0  0  0  0  0  0  0  0  0  0  0  0
   -0.9888    1.9167   -4.9042 N   0  0  0  0  0  0  0  0  0  0  0  0
   -0.3987    2.6484   -3.9219 C   0  0  0  0  0  0  0  0  0  0  0  0
    0.0650    2.0988   -2.7045 C   0  0  0  0  0  0  0  0  0  0  0  0
    0.7702    2.8195   -1.7090 C   0  0  0  0  0  0  0  0  0  0  0  0
    1.3635    2.1628   -0.6218 C   0  0  0  0  0  0  0  0  0  0  0  0
    2.3784    2.8785    0.2296 C   0  0  2  0  0  0  0  0  0  0  0  0
    3.0796    1.9508    1.2379 C   0  0  2  0  0  0  0  0  0  0  0  0
    4.3837    2.4580    1.5490 O   0  0  0  0  0  0  0  0  0  0  0  0
    1.8379    3.9991    0.9350 O   0  0  0  0  0  0  0  0  0  0  0  0
   -0.2825    4.0836   -4.2213 C   0  0  0  0  0  0  0  0  0  0  0  0
    0.7995    4.6254   -4.8290 C   0  0  0  0  0  0  0  0  0  0  0  0
    1.8608    3.8134   -5.2157 O   0  0  0  0  0  0  0  0  0  0  0  0
    3.1487    4.4128   -5.4678 C   0  0  1  0  0  0  0  0  0  0  0  0
    3.6364    5.0722   -4.2933 O   0  0  0  0  0  0  0  0  0  0  0  0
    4.9191    5.6740   -4.5087 C   0  0  1  0  0  0  0  0  0  0  0  0
    5.2587    6.5557   -3.3003 C   0  0  0  0  0  0  0  0  0  0  0  0
    4.2395    7.6709   -3.1004 C   0  0  0  0  0  0  0  0  0  0  0  0
    5.9548    4.5617   -4.7414 C   0  0  2  0  0  0  0  0  0  0  0  0
    5.5659    3.7854   -6.0044 C   0  0  2  0  0  0  0  0  0  0  0  0
    4.1101    3.2843   -5.9292 C   0  0  3  0  0  0  0  0  0  0  0  0
    3.7188    2.8078   -7.2305 O   0  0  0  0  0  0  0  0  0  0  0  0
    6.4760    2.6819   -6.1542 O   0  0  0  0  0  0  0  0  0  0  0  0
    5.9951    3.6064   -3.6646 O   0  0  0  0  0  0  0  0  0  0  0  0
    0.8217    6.1027   -5.1206 C   0  0  0  0  0  0  0  0  0  0  0  0
   -0.3627    6.8512   -4.5729 C   0  0  0  0  0  0  0  0  0  0  0  0
   -1.3999    6.1653   -3.9494 C   0  0  0  0  0  0  0  0  0  0  0  0
   -1.3870    4.8014   -3.8037 O   0  0  0  0  0  0  0  0  0  0  0  0
   -2.4834    6.7634   -3.4131 N   0  0  0  0  0  0  0  0  0  0  0  0
   -2.5252    8.0948   -3.5098 C   0  0  0  0  0  0  0  0  0  0  0  0
   -3.6298    8.6420   -2.9435 O   0  0  0  0  0  0  0  0  0  0  0  0
   -1.5457    8.8797   -4.1116 C   0  0  0  0  0  0  0  0  0  0  0  0
   -0.4382    8.2429   -4.6609 C   0  0  0  0  0  0  0  0  0  0  0  0
    0.5460    8.9512   -5.2511 N   0  0  0  0  0  0  0  0  0  0  0  0
    0.4104   10.2896   -5.2837 C   0  0  0  0  0  0  0  0  0  0  0  0
   -0.6091   10.9955   -4.7832 N   0  0  0  0  0  0  0  0  0  0  0  0
   -1.5799   10.2667   -4.2009 C   0  0  0  0  0  0  0  0  0  0  0  0
  1  2  1  0  0  0  0
  3  4  1  0  0  0  0
  3 16  1  0  0  0  0
  3  2  1  6  0  0  0
  4  5  1  0  0  0  0
  5  6  2  0  0  0  0
  5 14  1  0  0  0  0
  6  7  1  0  0  0  0
  7  8  2  0  0  0  0
  7 12  1  0  0  0  0
  8  9  1  0  0  0  0
  9 10  2  0  0  0  0
 10 11  1  0  0  0  0
 11 12  2  0  0  0  0
 11 19  1  0  0  0  0
 12 13  1  0  0  0  0
 13 14  2  0  0  0  0
 14 15  1  0  0  0  0
 15 16  1  0  0  0  0
 15 18  1  1  0  0  0
 16 17  1  6  0  0  0
 19 20  2  0  0  0  0
 19 36  1  0  0  0  0
 20 21  1  0  0  0  0
 20 33  1  0  0  0  0
 22 21  1  1  0  0  0
 22 23  1  0  0  0  0
 22 29  1  0  0  0  0
 23 24  1  0  0  0  0
 24 27  1  0  0  0  0
 24 25  1  1  0  0  0
 25 26  1  0  0  0  0
 27 28  1  0  0  0  0
 27 32  1  1  0  0  0
 28 29  1  0  0  0  0
 28 31  1  1  0  0  0
 29 30  1  0  0  0  0
 33 34  1  0  0  0  0
 34 35  2  0  0  0  0
 34 41  1  0  0  0  0
 35 36  1  0  0  0  0
 35 37  1  0  0  0  0
 37 38  2  0  0  0  0
 38 39  1  0  0  0  0
 38 40  1  0  0  0  0
 40 41  2  0  0  0  0
 40 45  1  0  0  0  0
 41 42  1  0  0  0  0
 42 43  2  0  0  0  0
 43 44  1  0  0  0  0
 44 45  2  0  0  0  0
M  END
$$$$