
 OpenBabel11212014523D

 52 60  0  0  1  0  0  0  0  0999 V2000
   -1.0066    7.2093   -2.0494 O   0  0  0  0  0  0  0  0  0  0  0  0
   -1.0173    5.8545   -1.8310 C   0  0  0  0  0  0  0  0  0  0  0  0
    0.0571    5.0784   -2.0185 C   0  0  0  0  0  0  0  0  0  0  0  0
    1.2526    5.6034   -2.4781 O   0  0  0  0  0  0  0  0  0  0  0  0
    2.4005    5.0414   -1.8318 C   0  0  2  0  0  0  0  0  0  0  0  0
    3.6126    5.7489   -2.1469 O   0  0  0  0  0  0  0  0  0  0  0  0
    3.7082    7.0829   -1.7622 C   0  0  0  0  0  0  0  0  0  0  0  0
    4.8949    7.6414   -1.4511 C   0  0  0  0  0  0  0  0  0  0  0  0
    5.0331    8.9800   -1.1211 O   0  0  0  0  0  0  0  0  0  0  0  0
    3.9548    9.8398   -1.2309 C   0  0  0  0  0  0  0  0  0  0  0  0
    2.7190    9.4131   -1.5259 C   0  0  0  0  0  0  0  0  0  0  0  0
    2.4699    7.9453   -1.7789 C   0  0  0  0  0  0  0  0  0  0  0  0
    1.4802   10.2623   -1.6531 C   0  0  3  0  0  0  0  0  0  0  0  0
    0.5751    9.7927   -0.6481 O   0  0  0  0  0  0  0  0  0  0  0  0
   -0.6268   10.3945   -0.4841 C   0  0  0  0  0  0  0  0  0  0  0  0
   -1.5257    9.8592    0.1513 O   0  0  0  0  0  0  0  0  0  0  0  0
   -0.7786   11.6199   -1.0299 O   0  0  0  0  0  0  0  0  0  0  0  0
    0.2793   12.3442   -1.6483 C   0  0  3  0  0  0  0  0  0  0  0  0
    1.6177   11.7241   -1.4360 C   0  0  0  0  0  0  0  0  0  0  0  0
    2.7285   12.4091   -1.0973 C   0  0  0  0  0  0  0  0  0  0  0  0
    4.3321   11.5692   -1.0020 P   0  0  0  0  0  0  0  0  0  0  0  0
    2.8196   13.8637   -0.8283 C   0  0  0  0  0  0  0  0  0  0  0  0
    3.6805   14.7333   -1.5868 O   0  0  0  0  0  0  0  0  0  0  0  0
    2.2535   14.8463   -1.7139 O   0  0  0  0  0  0  0  0  0  0  0  0
    0.0435   12.3752   -3.0467 O   0  0  0  0  0  0  0  0  0  0  0  0
    6.1673    6.9150   -1.3549 C   0  0  0  0  0  0  0  0  0  0  0  0
    6.5088    6.3928   -0.1169 C   0  0  0  0  0  0  0  0  0  0  0  0
    7.6756    5.7698    0.1181 N   0  0  0  0  0  0  0  0  0  0  0  0
    8.5663    5.6268   -0.9019 N   0  0  0  0  0  0  0  0  0  0  0  0
    8.2954    6.0937   -2.1284 C   0  0  0  0  0  0  0  0  0  0  0  0
    7.0929    6.7764   -2.4126 C   0  0  0  0  0  0  0  0  0  0  0  0
    6.8918    7.2773   -3.7229 C   0  0  0  0  0  0  0  0  0  0  0  0
    7.8356    7.0379   -4.7265 C   0  0  0  0  0  0  0  0  0  0  0  0
    8.9776    6.3016   -4.4492 C   0  0  0  0  0  0  0  0  0  0  0  0
    9.2199    5.8806   -3.1443 C   0  0  0  0  0  0  0  0  0  0  0  0
    9.9069    5.9510   -5.3872 O   0  0  0  0  0  0  0  0  0  0  0  0
    9.4107    5.8434   -6.7307 C   0  0  2  0  0  0  0  0  0  0  0  0
    8.5794    7.0268   -7.1548 C   0  0  0  0  0  0  0  0  0  0  0  0
    8.5489    7.4601   -8.2983 O   0  0  0  0  0  0  0  0  0  0  0  0
    7.6259    7.5340   -6.0931 C   0  0  0  0  0  0  0  0  0  0  0  0
    6.7020    8.2759   -6.3835 O   0  0  0  0  0  0  0  0  0  0  0  0
    8.7171    4.5291   -6.9606 C   0  0  1  0  0  0  0  0  0  0  0  0
    9.5216    3.3446   -6.7466 O   0  0  0  0  0  0  0  0  0  0  0  0
    7.3717    4.4614   -6.4857 O   0  0  0  0  0  0  0  0  0  0  0  0
    7.5423    4.3380   -7.8186 C   0  0  0  0  0  0  0  0  0  0  0  0
    7.2407    3.4169   -8.5438 O   0  0  0  0  0  0  0  0  0  0  0  0
    2.5070    3.5932   -2.3017 C   0  0  0  0  0  0  0  0  0  0  0  0
    3.5243    3.0228   -2.6661 O   0  0  0  0  0  0  0  0  0  0  0  0
    1.1789    2.8621   -2.2467 C   0  0  0  0  0  0  0  0  0  0  0  0
    1.0867    1.6934   -2.5869 O   0  0  0  0  0  0  0  0  0  0  0  0
   -0.0520    3.6187   -1.7822 C   0  0  0  0  0  0  0  0  0  0  0  0
   -0.9937    3.0692   -1.2403 O   0  0  0  0  0  0  0  0  0  0  0  0
  1  2  1  0  0  0  0
  2  3  2  0  0  0  0
  3  4  1  0  0  0  0
  3 51  1  0  0  0  0
  4  5  1  0  0  0  0
  5  6  1  6  0  0  0
  5 47  1  0  0  0  0
  6  7  1  0  0  0  0
  7  8  2  0  0  0  0
  7 12  1  0  0  0  0
  8  9  1  0  0  0  0
  8 26  1  0  0  0  0
  9 10  1  0  0  0  0
 10 11  2  0  0  0  0
 10 21  1  0  0  0  0
 11 12  1  0  0  0  0
 11 13  1  0  0  0  0
 13 14  1  0  0  0  0
 13 19  1  0  0  0  0
 14 15  1  0  0  0  0
 15 16  2  0  0  0  0
 15 17  1  0  0  0  0
 17 18  1  0  0  0  0
 18 19  1  0  0  0  0
 18 25  1  0  0  0  0
 19 20  2  0  0  0  0
 20 21  1  0  0  0  0
 20 22  1  0  0  0  0
 22 23  1  0  0  0  0
 22 24  1  0  0  0  0
 23 24  1  0  0  0  0
 26 27  2  0  0  0  0
 26 31  1  0  0  0  0
 27 28  1  0  0  0  0
 28 29  2  0  0  0  0
 29 30  1  0  0  0  0
 30 31  2  0  0  0  0
 30 35  1  0  0  0  0
 31 32  1  0  0  0  0
 32 33  2  0  0  0  0
 33 34  1  0  0  0  0
 33 40  1  0  0  0  0
 34 35  2  0  0  0  0
 34 36  1  0  0  0  0
 37 36  1  1  0  0  0
 37 38  1  0  0  0  0
 37 42  1  0  0  0  0
 38 39  2  0  0  0  0
 38 40  1  0  0  0  0
 40 41  2  0  0  0  0
 42 43  1  1  0  0  0
 42 44  1  0  0  0  0
 42 45  1  0  0  0  0
 44 45  1  0  0  0  0
 45 46  2  0  0  0  0
 47 48  2  0  0  0  0
 47 49  1  0  0  0  0
 49 50  2  0  0  0  0
 49 51  1  0  0  0  0
 51 52  2  0  0  0  0
M  END
$$$$