
 OpenBabel11212014373D

 54 62  0  0  1  0  0  0  0  0999 V2000
   -1.1057   -0.4231   -5.3041 O   0  0  0  0  0  0  0  0  0  0  0  0
   -1.5713   -1.0266   -4.1625 C   0  0  0  0  0  0  0  0  0  0  0  0
   -0.8204   -1.8484   -3.4190 C   0  0  0  0  0  0  0  0  0  0  0  0
    0.4679   -2.1496   -3.8039 O   0  0  0  0  0  0  0  0  0  0  0  0
    1.4291   -2.5750   -2.8486 C   0  0  2  0  0  0  0  0  0  0  0  0
    1.8856   -3.9256   -3.0706 O   0  0  0  0  0  0  0  0  0  0  0  0
    2.1043   -4.4069   -4.3518 C   0  0  0  0  0  0  0  0  0  0  0  0
    1.9845   -5.7294   -4.5908 C   0  0  0  0  0  0  0  0  0  0  0  0
    2.1714   -6.2909   -5.8433 O   0  0  0  0  0  0  0  0  0  0  0  0
    2.5080   -5.4933   -6.9289 C   0  0  0  0  0  0  0  0  0  0  0  0
    2.7343   -4.1701   -6.7916 C   0  0  0  0  0  0  0  0  0  0  0  0
    2.5530   -3.4704   -5.4605 C   0  0  0  0  0  0  0  0  0  0  0  0
    3.0899   -3.3113   -7.9833 C   0  0  3  0  0  0  0  0  0  0  0  0
    4.4205   -2.8501   -7.8384 O   0  0  0  0  0  0  0  0  0  0  0  0
    4.8844   -2.0322   -8.8286 C   0  0  0  0  0  0  0  0  0  0  0  0
    5.8839   -1.3487   -8.6873 O   0  0  0  0  0  0  0  0  0  0  0  0
    4.1466   -2.0215   -9.9678 O   0  0  0  0  0  0  0  0  0  0  0  0
    3.4173   -3.1687  -10.3858 C   0  0  3  0  0  0  0  0  0  0  0  0
    3.0826   -4.0813   -9.2593 C   0  0  0  0  0  0  0  0  0  0  0  0
    2.8173   -5.4112   -9.3303 C   0  0  0  0  0  0  0  0  0  0  0  0
    2.5990   -6.1190   -8.1546 O   0  3  0  0  0  0  0  0  0  0  0  0
    2.1906   -7.4559   -8.2190 F   0  0  0  0  0  0  0  0  0  0  0  0
    2.7348   -6.1799  -10.6022 C   0  0  0  0  0  0  0  0  0  0  0  0
    3.0972   -7.5672  -10.6748 O   0  0  0  0  0  0  0  0  0  0  0  0
    1.7162   -7.1719  -10.8085 O   0  0  0  0  0  0  0  0  0  0  0  0
    2.1680   -2.7575  -10.8994 O   0  0  0  0  0  0  0  0  0  0  0  0
    1.6807   -6.7434   -3.5570 C   0  0  0  0  0  0  0  0  0  0  0  0
    2.7469   -7.4029   -2.9630 C   0  0  0  0  0  0  0  0  0  0  0  0
    2.5826   -8.3960   -2.0785 N   0  0  0  0  0  0  0  0  0  0  0  0
    1.3180   -8.7876   -1.7369 N   0  0  0  0  0  0  0  0  0  0  0  0
    0.2295   -8.1990   -2.2610 C   0  0  0  0  0  0  0  0  0  0  0  0
    0.3726   -7.1449   -3.1939 C   0  0  0  0  0  0  0  0  0  0  0  0
   -0.7925   -6.5650   -3.7420 C   0  0  0  0  0  0  0  0  0  0  0  0
   -2.0648   -7.0173   -3.3741 C   0  0  0  0  0  0  0  0  0  0  0  0
   -3.2543   -6.4518   -4.0184 C   0  0  0  0  0  0  0  0  0  0  0  0
   -3.1622   -5.5760   -4.8627 O   0  0  0  0  0  0  0  0  0  0  0  0
   -4.5752   -7.0598   -3.6049 C   0  0  0  0  0  0  0  0  0  0  0  0
   -5.5130   -7.1096   -4.3852 O   0  0  0  0  0  0  0  0  0  0  0  0
   -4.5567   -7.6552   -2.2137 C   0  0  1  0  0  0  0  0  0  0  0  0
   -3.4194   -8.5243   -2.0203 O   0  0  0  0  0  0  0  0  0  0  0  0
   -2.2129   -8.0328   -2.4443 C   0  0  0  0  0  0  0  0  0  0  0  0
   -1.0637   -8.6269   -1.9178 C   0  0  0  0  0  0  0  0  0  0  0  0
   -1.2127   -9.6784   -1.0403 O   0  0  0  0  0  0  0  0  0  0  0  0
   -4.6551   -6.6632   -1.0853 C   0  0  1  0  0  0  0  0  0  0  0  0
   -4.6701   -7.2205    0.2447 O   0  0  0  0  0  0  0  0  0  0  0  0
   -3.8744   -5.4783   -1.2075 O   0  0  0  0  0  0  0  0  0  0  0  0
   -5.2185   -5.3241   -1.2630 C   0  0  0  0  0  0  0  0  0  0  0  0
   -5.8956   -4.8554   -2.1446 O   0  0  0  0  0  0  0  0  0  0  0  0
    0.9943   -2.5545   -1.3942 C   0  0  0  0  0  0  0  0  0  0  0  0
    1.6836   -2.2250   -0.4424 O   0  0  0  0  0  0  0  0  0  0  0  0
   -0.4344   -2.9744   -1.2211 C   0  0  0  0  0  0  0  0  0  0  0  0
   -0.7580   -3.7817   -0.3671 O   0  0  0  0  0  0  0  0  0  0  0  0
   -1.4384   -2.4020   -2.1846 C   0  0  0  0  0  0  0  0  0  0  0  0
   -2.6310   -2.3903   -1.9355 O   0  0  0  0  0  0  0  0  0  0  0  0
  1  2  1  0  0  0  0
  2  3  2  0  0  0  0
  3  4  1  0  0  0  0
  3 53  1  0  0  0  0
  4  5  1  0  0  0  0
  5  6  1  6  0  0  0
  5 49  1  0  0  0  0
  6  7  1  0  0  0  0
  7  8  2  0  0  0  0
  7 12  1  0  0  0  0
  8  9  1  0  0  0  0
  8 27  1  0  0  0  0
  9 10  1  0  0  0  0
 10 11  2  0  0  0  0
 10 21  1  0  0  0  0
 11 12  1  0  0  0  0
 11 13  1  0  0  0  0
 13 14  1  0  0  0  0
 13 19  1  0  0  0  0
 14 15  1  0  0  0  0
 15 16  2  0  0  0  0
 15 17  1  0  0  0  0
 17 18  1  0  0  0  0
 18 19  1  0  0  0  0
 18 26  1  0  0  0  0
 19 20  2  0  0  0  0
 20 21  1  0  0  0  0
 20 23  1  0  0  0  0
 21 22  1  0  0  0  0
 23 24  1  0  0  0  0
 23 25  1  0  0  0  0
 24 25  1  0  0  0  0
 27 28  2  0  0  0  0
 27 32  1  0  0  0  0
 28 29  1  0  0  0  0
 29 30  2  0  0  0  0
 30 31  1  0  0  0  0
 31 32  2  0  0  0  0
 31 42  1  0  0  0  0
 32 33  1  0  0  0  0
 33 34  2  0  0  0  0
 34 35  1  0  0  0  0
 34 41  1  0  0  0  0
 35 36  2  0  0  0  0
 35 37  1  0  0  0  0
 37 38  2  0  0  0  0
 39 37  1  6  0  0  0
 39 40  1  0  0  0  0
 39 44  1  0  0  0  0
 40 41  1  0  0  0  0
 41 42  2  0  0  0  0
 42 43  1  0  0  0  0
 44 45  1  1  0  0  0
 44 46  1  0  0  0  0
 44 47  1  0  0  0  0
 46 47  1  0  0  0  0
 47 48  2  0  0  0  0
 49 50  2  0  0  0  0
 49 51  1  0  0  0  0
 51 52  2  0  0  0  0
 51 53  1  0  0  0  0
 53 54  2  0  0  0  0
M  CHG  1  21   1
M  END
$$$$