
 OpenBabel05202119493D

 55 66  0  0  1  0  0  0  0  0999 V2000
    1.7233    0.2238   -3.9785 F   0  0  0  0  0  0  0  0  0  0  0  0
    3.0216   -0.0700   -3.8285 C   0  0  0  0  0  0  0  0  0  0  0  0
    3.9748    0.7762   -4.3664 C   0  0  0  0  0  0  0  0  0  0  0  0
    5.3118    0.4846   -4.1495 C   0  0  0  0  0  0  0  0  0  0  0  0
    5.6666   -0.6174   -3.3601 C   0  0  0  0  0  0  0  0  0  0  0  0
    4.7277   -1.5382   -2.8395 C   0  0  0  0  0  0  0  0  0  0  0  0
    3.3842   -1.2249   -3.1259 C   0  0  0  0  0  0  0  0  0  0  0  0
    5.1326   -2.7573   -2.0349 C   0  0  0  0  0  0  0  0  0  0  0  0
    4.3458   -3.2751   -0.9714 C   0  0  0  0  0  0  0  0  0  0  0  0
    3.0495   -2.6792   -0.4748 C   0  0  0  0  0  0  0  0  0  0  0  0
    4.7340   -4.4636   -0.3069 C   0  0  0  0  0  0  0  0  0  0  0  0
    5.9626   -5.1019   -0.5173 C   0  0  0  0  0  0  0  0  0  0  0  0
    6.8448   -4.5009   -1.4379 C   0  0  0  0  0  0  0  0  0  0  0  0
    6.3647   -3.4498   -2.2610 C   0  0  0  0  0  0  0  0  0  0  0  0
    7.1205   -3.3163   -3.5340 C   0  0  0  0  0  0  0  0  0  0  0  0
    6.4927   -3.1606   -4.5834 O   0  0  0  0  0  0  0  0  0  0  0  0
    8.6649   -3.4042   -3.4896 C   0  0  1  0  0  0  0  0  0  0  0  0
    9.2176   -4.1677   -2.2670 C   0  0  2  0  0  0  0  0  0  0  0  0
    8.1737   -4.9653   -1.5161 C   0  0  0  0  0  0  0  0  0  0  0  0
    8.5675   -6.0604   -0.7598 C   0  0  0  0  0  0  0  0  0  0  0  0
    7.6467   -6.7294    0.0392 C   0  0  0  0  0  0  0  0  0  0  0  0
    6.3167   -6.2955    0.1811 C   0  0  0  0  0  0  0  0  0  0  0  0
    5.2829   -7.1097    1.1099 C   0  0  0  0  0  0  0  0  0  0  0  0
    5.6113   -8.8736    1.1680 C   0  0  0  0  0  0  0  0  0  0  0  0
    4.5732   -8.6300    0.5337 C   0  0  0  0  0  0  0  0  0  0  0  0
    3.8646   -7.6633    0.1456 C   0  0  0  0  0  0  0  0  0  0  0  0
    9.8236   -6.5742   -0.7379 O   0  0  0  0  0  0  0  0  0  0  0  0
   10.8549   -5.8920   -1.4567 C   0  0  2  0  0  0  0  0  0  0  0  0
   10.4057   -5.0502   -2.6558 C   0  0  1  0  0  0  0  0  0  0  0  0
   10.0019   -5.8696   -3.8538 C   0  0  0  0  0  0  0  0  0  0  0  0
    9.2844   -5.2293   -4.8595 C   0  0  0  0  0  0  0  0  0  0  0  0
    9.0892   -3.8828   -4.7724 O   0  0  0  0  0  0  0  0  0  0  0  0
    8.8560   -5.9193   -5.9918 C   0  0  0  0  0  0  0  0  0  0  0  0
    8.1132   -5.2262   -7.0998 C   0  0  0  0  0  0  0  0  0  0  0  0
    9.1224   -7.2978   -6.0640 C   0  0  0  0  0  0  0  0  0  0  0  0
    9.8491   -7.9732   -5.0582 C   0  0  0  0  0  0  0  0  0  0  0  0
   10.3340   -7.2253   -3.9737 C   0  0  0  0  0  0  0  0  0  0  0  0
   11.1638   -7.8534   -3.0487 C   0  0  0  0  0  0  0  0  0  0  0  0
   11.7234   -7.0595   -1.9337 C   0  0  0  0  0  0  0  0  0  0  0  0
   12.7771   -7.3792   -1.3866 O   0  0  0  0  0  0  0  0  0  0  0  0
   11.4520   -9.2120   -3.1361 C   0  0  0  0  0  0  0  0  0  0  0  0
   10.8483  -10.0180   -4.0930 C   0  0  0  0  0  0  0  0  0  0  0  0
   10.0978   -9.3736   -5.1056 C   0  0  0  0  0  0  0  0  0  0  0  0
    9.4917  -10.0964   -6.2903 C   0  0  0  0  0  0  0  0  0  0  0  0
    9.3951   -9.1345   -7.4743 C   0  0  0  0  0  0  0  0  0  0  0  0
    8.6262   -7.9688   -7.1613 O   0  0  0  0  0  0  0  0  0  0  0  0
   11.0569  -11.8043   -4.1075 S   0  3  0  0  0  0  0  0  0  0  0  0
    9.6764  -12.3818   -3.0924 C   0  0  0  0  0  0  0  0  0  0  0  0
    9.7069  -11.9317   -1.6438 C   0  0  0  0  0  0  0  0  0  0  0  0
   10.9003  -12.5246   -0.9097 C   0  0  0  0  0  0  0  0  0  0  0  0
   12.2208  -12.0332   -1.4755 C   0  0  0  0  0  0  0  0  0  0  0  0
   12.4059  -12.2062   -2.9799 C   0  0  0  0  0  0  0  0  0  0  0  0
   11.5947   -5.0758   -0.5529 O   0  0  0  0  0  0  0  0  0  0  0  0
    9.1782   -2.0698   -3.3877 O   0  0  0  0  0  0  0  0  0  0  0  0
    6.9742   -0.7566   -3.1016 F   0  0  0  0  0  0  0  0  0  0  0  0
  1  2  1  0  0  0  0
  2  3  2  0  0  0  0
  2  7  1  0  0  0  0
  3  4  1  0  0  0  0
  4  5  2  0  0  0  0
  5  6  1  0  0  0  0
  5 55  1  0  0  0  0
  6  7  2  0  0  0  0
  6  8  1  0  0  0  0
  8  9  2  0  0  0  0
  8 14  1  0  0  0  0
  9 11  1  0  0  0  0
  9 10  1  0  0  0  0
 11 12  2  0  0  0  0
 12 13  1  0  0  0  0
 12 22  1  0  0  0  0
 13 14  2  0  0  0  0
 13 19  1  0  0  0  0
 14 15  1  0  0  0  0
 15 17  1  0  0  0  0
 15 16  2  0  0  0  0
 17 18  1  0  0  0  0
 17 32  1  0  0  0  0
 17 54  1  1  0  0  0
 18 19  1  1  0  0  0
 18 29  1  0  0  0  0
 19 20  2  0  0  0  0
 20 21  1  0  0  0  0
 20 27  1  0  0  0  0
 21 22  2  0  0  0  0
 22 23  1  0  0  0  0
 23 24  1  0  0  0  0
 23 26  1  0  0  0  0
 24 25  2  0  0  0  0
 25 26  2  0  0  0  0
 27 28  1  0  0  0  0
 28 29  1  0  0  0  0
 28 39  1  0  0  0  0
 28 53  1  1  0  0  0
 29 30  1  6  0  0  0
 30 31  2  0  0  0  0
 30 37  1  0  0  0  0
 31 32  1  0  0  0  0
 31 33  1  0  0  0  0
 33 35  2  0  0  0  0
 33 34  1  0  0  0  0
 35 36  1  0  0  0  0
 35 46  1  0  0  0  0
 36 37  2  0  0  0  0
 36 43  1  0  0  0  0
 37 38  1  0  0  0  0
 38 39  1  0  0  0  0
 38 41  2  0  0  0  0
 39 40  2  0  0  0  0
 41 42  1  0  0  0  0
 42 43  2  0  0  0  0
 42 47  1  0  0  0  0
 43 44  1  0  0  0  0
 44 45  1  0  0  0  0
 45 46  1  0  0  0  0
 47 48  1  0  0  0  0
 47 52  1  0  0  0  0
 48 49  1  0  0  0  0
 49 50  1  0  0  0  0
 50 51  1  0  0  0  0
 51 52  1  0  0  0  0
M  CHG  1  47   1
M  END
$$$$