
 OpenBabel11242000373D

 53 62  0  0  1  0  0  0  0  0999 V2000
  -13.2515  -14.1946    1.7973 O   0  0  0  0  0  0  0  0  0  0  0  0
  -13.5965  -14.5263    0.5070 C   0  0  0  0  0  0  0  0  0  0  0  0
  -12.8858  -14.1575   -0.5639 C   0  0  0  0  0  0  0  0  0  0  0  0
  -11.7386  -13.3995   -0.4095 O   0  0  0  0  0  0  0  0  0  0  0  0
  -10.9588  -13.0111   -1.5343 C   0  0  2  0  0  0  0  0  0  0  0  0
  -10.1472  -11.8330   -1.3442 O   0  0  0  0  0  0  0  0  0  0  0  0
  -10.6275  -10.7088   -0.6891 C   0  0  0  0  0  0  0  0  0  0  0  0
  -10.1666   -9.4720   -0.9869 C   0  0  0  0  0  0  0  0  0  0  0  0
  -10.4764   -8.3378   -0.2348 O   0  0  0  0  0  0  0  0  0  0  0  0
  -11.2713   -8.4617    0.8939 C   0  0  0  0  0  0  0  0  0  0  0  0
  -11.8129   -9.6354    1.2527 C   0  0  0  0  0  0  0  0  0  0  0  0
  -11.5413  -10.8912    0.4953 C   0  0  0  0  0  0  0  0  0  0  0  0
  -12.8034   -9.7048    2.3826 C   0  0  3  0  0  0  0  0  0  0  0  0
  -12.3760  -10.7201    3.3336 N   0  0  0  0  0  0  0  0  0  0  0  0
  -13.1555  -10.8994    4.4250 C   0  0  0  0  0  0  0  0  0  0  0  0
  -13.4538  -12.0658    4.8711 N   0  0  0  0  0  0  0  0  0  0  0  0
  -13.5565   -9.7671    5.0404 N   0  0  0  0  0  0  0  0  0  0  0  0
  -13.9114   -8.5727    4.3040 C   0  0  0  0  0  0  0  0  0  0  0  0
  -12.9737   -8.4181    3.1461 C   0  0  0  0  0  0  0  0  0  0  0  0
  -12.3248   -7.2905    2.7703 C   0  0  0  0  0  0  0  0  0  0  0  0
  -11.5120   -7.3349    1.6404 N   0  0  0  0  0  0  0  0  0  0  0  0
  -12.4117   -6.0069    3.4870 C   0  0  3  0  0  0  0  0  0  0  0  0
  -13.4837   -5.1268    3.1825 N   0  0  0  0  0  0  0  0  0  0  0  0
  -12.3662   -4.7894    2.7528 N   0  0  0  0  0  0  0  0  0  0  0  0
   -9.2198   -9.1816   -2.0888 C   0  0  0  0  0  0  0  0  0  0  0  0
   -7.8686   -9.3014   -1.7715 C   0  0  0  0  0  0  0  0  0  0  0  0
   -6.5319   -9.0048   -2.9170 P   0  3  3  0  0  0  0  0  0  0  0  0
   -7.3508   -8.3608   -4.1745 N   0  0  0  0  0  0  0  0  0  0  0  0
   -8.6746   -8.3343   -4.3314 C   0  0  0  0  0  0  0  0  0  0  0  0
   -9.6459   -8.7248   -3.3637 C   0  0  0  0  0  0  0  0  0  0  0  0
  -11.0154   -8.6148   -3.7046 C   0  0  0  0  0  0  0  0  0  0  0  0
  -11.4221   -8.1466   -4.9578 C   0  0  0  0  0  0  0  0  0  0  0  0
  -10.4849   -7.7372   -5.8879 C   0  0  0  0  0  0  0  0  0  0  0  0
   -9.1176   -7.8085   -5.5636 C   0  0  0  0  0  0  0  0  0  0  0  0
   -8.1610   -7.5281   -6.5886 N   0  0  0  0  0  0  0  0  0  0  0  0
  -10.8002   -7.2425   -7.1314 O   0  0  0  0  0  0  0  0  0  0  0  0
  -12.1954   -7.0659   -7.4558 C   0  0  1  0  0  0  0  0  0  0  0  0
  -13.1691   -7.9234   -6.7676 C   0  0  0  0  0  0  0  0  0  0  0  0
  -14.1362   -8.4317   -7.3076 O   0  0  0  0  0  0  0  0  0  0  0  0
  -12.8455   -8.1050   -5.3072 C   0  0  0  0  0  0  0  0  0  0  0  0
  -13.7299   -8.2128   -4.4742 O   0  0  0  0  0  0  0  0  0  0  0  0
  -12.6281   -5.7551   -7.7226 O   0  0  0  0  0  0  0  0  0  0  0  0
  -12.5448   -6.6730   -8.8608 C   0  0  1  0  0  0  0  0  0  0  0  0
  -11.2785   -6.6661   -9.6499 O   0  0  0  0  0  0  0  0  0  0  0  0
  -12.2524   -5.8719  -10.0083 C   0  0  0  0  0  0  0  0  0  0  0  0
  -12.8056   -5.6545  -11.0646 O   0  0  0  0  0  0  0  0  0  0  0  0
   -5.9818   -7.6693   -2.2921 F   0  0  0  0  0  0  0  0  0  0  0  0
  -11.6863  -12.9594   -2.8677 C   0  0  0  0  0  0  0  0  0  0  0  0
  -11.6143  -12.0995   -3.7301 O   0  0  0  0  0  0  0  0  0  0  0  0
  -12.5363  -14.1784   -3.0502 C   0  0  0  0  0  0  0  0  0  0  0  0
  -12.4323  -14.8620   -4.0501 O   0  0  0  0  0  0  0  0  0  0  0  0
  -13.4028  -14.5945   -1.8908 C   0  0  0  0  0  0  0  0  0  0  0  0
  -14.4312  -15.2276   -2.0629 O   0  0  0  0  0  0  0  0  0  0  0  0
  1  2  1  0  0  0  0
  2  3  2  0  0  0  0
  3  4  1  0  0  0  0
  3 52  1  0  0  0  0
  4  5  1  0  0  0  0
  5  6  1  1  0  0  0
  5 48  1  0  0  0  0
  6  7  1  0  0  0  0
  7  8  2  0  0  0  0
  7 12  1  0  0  0  0
  8  9  1  0  0  0  0
  8 25  1  0  0  0  0
  9 10  1  0  0  0  0
 10 11  2  0  0  0  0
 10 21  1  0  0  0  0
 11 12  1  0  0  0  0
 11 13  1  0  0  0  0
 13 14  1  0  0  0  0
 13 19  1  0  0  0  0
 14 15  1  0  0  0  0
 15 16  2  0  0  0  0
 15 17  1  0  0  0  0
 17 18  1  0  0  0  0
 18 19  1  0  0  0  0
 19 20  2  0  0  0  0
 20 21  1  0  0  0  0
 20 22  1  0  0  0  0
 22 23  1  0  0  0  0
 22 24  1  0  0  0  0
 23 24  2  0  0  0  0
 25 26  2  0  0  0  0
 25 30  1  0  0  0  0
 26 27  1  0  0  0  0
 27 28  2  0  0  0  0
 27 47  1  0  0  0  0
 28 29  1  0  0  0  0
 29 30  2  0  0  0  0
 29 34  1  0  0  0  0
 30 31  1  0  0  0  0
 31 32  2  0  0  0  0
 32 33  1  0  0  0  0
 32 40  1  0  0  0  0
 33 34  2  0  0  0  0
 33 36  1  0  0  0  0
 34 35  1  0  0  0  0
 37 36  1  1  0  0  0
 37 38  1  0  0  0  0
 37 42  1  0  0  0  0
 37 43  1  0  0  0  0
 38 39  2  0  0  0  0
 38 40  1  0  0  0  0
 40 41  2  0  0  0  0
 43 42  1  1  0  0  0
 43 44  1  0  0  0  0
 43 45  1  0  0  0  0
 44 45  1  0  0  0  0
 45 46  2  0  0  0  0
 48 49  2  0  0  0  0
 48 50  1  0  0  0  0
 50 51  2  0  0  0  0
 50 52  1  0  0  0  0
 52 53  2  0  0  0  0
M  CHG  1  27   1
M  END
$$$$