
 OpenBabel11252003093D

 54 63  0  0  1  0  0  0  0  0999 V2000
   19.5231   -0.7362   -2.8601 O   0  0  0  0  0  0  0  0  0  0  0  0
   18.9616   -1.9684   -3.0796 C   0  0  0  0  0  0  0  0  0  0  0  0
   17.6677   -2.1335   -3.3792 C   0  0  0  0  0  0  0  0  0  0  0  0
   16.8126   -1.0438   -3.4494 O   0  0  0  0  0  0  0  0  0  0  0  0
   15.7643   -1.1948   -4.3860 C   0  0  2  0  0  0  0  0  0  0  0  0
   14.8714   -0.0528   -4.3484 O   0  0  0  0  0  0  0  0  0  0  0  0
   15.1397    1.0558   -5.1327 C   0  0  0  0  0  0  0  0  0  0  0  0
   14.1386    1.8617   -5.5687 C   0  0  0  0  0  0  0  0  0  0  0  0
   14.4107    3.0060   -6.3373 O   0  0  0  0  0  0  0  0  0  0  0  0
   15.7183    3.3259   -6.7143 C   0  0  0  0  0  0  0  0  0  0  0  0
   16.7595    2.5704   -6.3198 C   0  0  0  0  0  0  0  0  0  0  0  0
   16.5881    1.3869   -5.4094 C   0  0  0  0  0  0  0  0  0  0  0  0
   18.1616    2.8402   -6.8014 C   0  0  3  0  0  0  0  0  0  0  0  0
   18.5754    1.6914   -7.5171 O   0  0  0  0  0  0  0  0  0  0  0  0
   19.7637    1.7419   -8.1815 C   0  0  0  0  0  0  0  0  0  0  0  0
   20.2988    0.7156   -8.5670 O   0  0  0  0  0  0  0  0  0  0  0  0
   20.2980    2.9696   -8.3885 O   0  0  0  0  0  0  0  0  0  0  0  0
   19.5801    4.0943   -8.2485 C   0  0  0  0  0  0  0  0  0  0  0  0
   20.0504    5.2067   -8.4368 O   0  0  0  0  0  0  0  0  0  0  0  0
   18.2076    3.9535   -7.7638 C   0  0  0  0  0  0  0  0  0  0  0  0
   17.1387    4.7067   -8.1151 C   0  0  0  0  0  0  0  0  0  0  0  0
   15.8994    4.4272   -7.5307 O   0  3  0  0  0  0  0  0  0  0  0  0
   17.0854    5.7802   -9.1354 C   0  0  0  0  0  0  0  0  0  0  0  0
   17.3675    7.1366   -8.7017 N   0  0  0  0  0  0  0  0  0  0  0  0
   18.1762    6.5178   -9.7102 N   0  0  0  0  0  0  0  0  0  0  0  0
   12.6698    1.6224   -5.2883 C   0  0  0  0  0  0  0  0  0  0  0  0
   12.1934    0.3097   -5.2300 C   0  0  0  0  0  0  0  0  0  0  0  0
   10.9152    0.0296   -4.9609 N   0  3  0  0  0  0  0  0  0  0  0  0
   10.5330   -1.2596   -4.8685 F   0  0  0  0  0  0  0  0  0  0  0  0
   10.0056    0.9680   -4.8032 N   0  0  0  0  0  0  0  0  0  0  0  0
   10.3590    2.2515   -4.8782 C   0  0  0  0  0  0  0  0  0  0  0  0
   11.6972    2.6475   -5.1035 C   0  0  0  0  0  0  0  0  0  0  0  0
   11.9580    4.0409   -5.1095 C   0  0  0  0  0  0  0  0  0  0  0  0
   10.9401    4.9952   -4.9397 C   0  0  0  0  0  0  0  0  0  0  0  0
    9.6357    4.5986   -4.7592 C   0  0  0  0  0  0  0  0  0  0  0  0
    9.3688    3.2296   -4.7223 C   0  0  0  0  0  0  0  0  0  0  0  0
    8.1025    2.8292   -4.5260 F   0  0  0  0  0  0  0  0  0  0  0  0
    8.5937    5.4604   -4.5783 O   0  0  0  0  0  0  0  0  0  0  0  0
    8.8339    6.8795   -4.7675 C   0  0  1  0  0  0  0  0  0  0  0  0
   10.1960    7.3940   -4.5381 C   0  0  0  0  0  0  0  0  0  0  0  0
   10.4522    8.4948   -4.0869 O   0  0  0  0  0  0  0  0  0  0  0  0
   11.2797    6.4182   -4.9277 C   0  0  0  0  0  0  0  0  0  0  0  0
   12.4143    6.7669   -5.2211 O   0  0  0  0  0  0  0  0  0  0  0  0
    8.1263    7.5022   -5.8094 O   0  0  0  0  0  0  0  0  0  0  0  0
    7.7127    7.8221   -4.4386 C   0  0  1  0  0  0  0  0  0  0  0  0
    6.6273    7.0007   -3.8512 O   0  0  0  0  0  0  0  0  0  0  0  0
    6.3123    8.1001   -4.4767 C   0  0  0  0  0  0  0  0  0  0  0  0
    5.6383    9.0684   -4.1489 O   0  0  0  0  0  0  0  0  0  0  0  0
   14.8855   -2.3923   -4.0756 C   0  0  0  0  0  0  0  0  0  0  0  0
   13.6604   -2.3880   -4.1441 O   0  0  0  0  0  0  0  0  0  0  0  0
   15.6804   -3.6383   -3.7789 C   0  0  0  0  0  0  0  0  0  0  0  0
   15.1085   -4.7134   -3.7281 O   0  0  0  0  0  0  0  0  0  0  0  0
   17.1830   -3.5268   -3.6126 C   0  0  0  0  0  0  0  0  0  0  0  0
   17.9133   -4.4930   -3.7384 O   0  0  0  0  0  0  0  0  0  0  0  0
  1  2  1  0  0  0  0
  2  3  2  0  0  0  0
  3  4  1  0  0  0  0
  3 53  1  0  0  0  0
  4  5  1  0  0  0  0
  5  6  1  1  0  0  0
  5 49  1  0  0  0  0
  6  7  1  0  0  0  0
  7  8  2  0  0  0  0
  7 12  1  0  0  0  0
  8  9  1  0  0  0  0
  8 26  1  0  0  0  0
  9 10  1  0  0  0  0
 10 11  2  0  0  0  0
 10 22  1  0  0  0  0
 11 12  1  0  0  0  0
 11 13  1  0  0  0  0
 13 14  1  0  0  0  0
 13 20  1  0  0  0  0
 14 15  1  0  0  0  0
 15 16  2  0  0  0  0
 15 17  1  0  0  0  0
 17 18  1  0  0  0  0
 18 19  2  0  0  0  0
 18 20  1  0  0  0  0
 20 21  2  0  0  0  0
 21 22  1  0  0  0  0
 21 23  1  0  0  0  0
 23 24  1  0  0  0  0
 23 25  1  0  0  0  0
 24 25  1  0  0  0  0
 26 27  2  0  0  0  0
 26 32  1  0  0  0  0
 27 28  1  0  0  0  0
 28 29  1  0  0  0  0
 28 30  2  0  0  0  0
 30 31  1  0  0  0  0
 31 32  2  0  0  0  0
 31 36  1  0  0  0  0
 32 33  1  0  0  0  0
 33 34  2  0  0  0  0
 34 35  1  0  0  0  0
 34 42  1  0  0  0  0
 35 36  2  0  0  0  0
 35 38  1  0  0  0  0
 36 37  1  0  0  0  0
 39 38  1  1  0  0  0
 39 40  1  0  0  0  0
 39 44  1  0  0  0  0
 39 45  1  0  0  0  0
 40 41  2  0  0  0  0
 40 42  1  0  0  0  0
 42 43  2  0  0  0  0
 45 44  1  6  0  0  0
 45 46  1  0  0  0  0
 45 47  1  0  0  0  0
 46 47  1  0  0  0  0
 47 48  2  0  0  0  0
 49 50  2  0  0  0  0
 49 51  1  0  0  0  0
 51 52  2  0  0  0  0
 51 53  1  0  0  0  0
 53 54  2  0  0  0  0
M  CHG  2  22   1  28   1
M  END
$$$$