
 OpenBabel11232001253D

 52 61  0  0  1  0  0  0  0  0999 V2000
   -8.3104  -13.4451   -2.7277 O   0  0  0  0  0  0  0  0  0  0  0  0
   -7.2776  -14.2932   -3.0372 C   0  0  0  0  0  0  0  0  0  0  0  0
   -6.0313  -14.1269   -2.5769 C   0  0  0  0  0  0  0  0  0  0  0  0
   -5.7003  -13.0453   -1.7813 O   0  0  0  0  0  0  0  0  0  0  0  0
   -4.6848  -13.3085   -0.8243 C   0  0  2  0  0  0  0  0  0  0  0  0
   -4.4006  -12.1109   -0.0788 O   0  0  0  0  0  0  0  0  0  0  0  0
   -5.1209  -11.8840    1.0817 C   0  0  0  0  0  0  0  0  0  0  0  0
   -4.5650  -11.2103    2.1086 C   0  0  0  0  0  0  0  0  0  0  0  0
   -5.2218  -10.9846    3.3148 O   0  0  0  0  0  0  0  0  0  0  0  0
   -6.4700  -11.5551    3.5311 C   0  0  0  0  0  0  0  0  0  0  0  0
   -7.1330  -12.1919    2.5467 C   0  0  0  0  0  0  0  0  0  0  0  0
   -6.5594  -12.3329    1.1614 C   0  0  0  0  0  0  0  0  0  0  0  0
   -8.4782  -12.8198    2.7815 C   0  0  3  0  0  0  0  0  0  0  0  0
   -8.4021  -14.1907    2.4215 O   0  0  0  0  0  0  0  0  0  0  0  0
   -9.5900  -14.8543    2.4746 C   0  0  0  0  0  0  0  0  0  0  0  0
   -9.8006  -15.8693    1.8349 O   0  0  0  0  0  0  0  0  0  0  0  0
  -10.5203  -14.2588    3.2657 O   0  0  0  0  0  0  0  0  0  0  0  0
  -10.0379  -13.6754    4.4663 C   0  0  3  0  0  0  0  0  0  0  0  0
   -8.8509  -12.8050    4.2186 C   0  0  0  0  0  0  0  0  0  0  0  0
   -8.1362  -12.1412    5.1559 C   0  0  0  0  0  0  0  0  0  0  0  0
   -6.9917  -11.4454    4.7988 O   0  3  0  0  0  0  0  0  0  0  0  0
   -8.4669  -12.1460    6.6007 C   0  0  0  0  0  0  0  0  0  0  0  0
   -7.8941  -13.1231    7.4797 O   0  0  0  0  0  0  0  0  0  0  0  0
   -7.4850  -11.7453    7.5734 O   0  0  0  0  0  0  0  0  0  0  0  0
  -11.0394  -12.8257    4.9875 O   0  0  0  0  0  0  0  0  0  0  0  0
   -3.2192  -10.6103    2.0505 C   0  0  0  0  0  0  0  0  0  0  0  0
   -3.1052   -9.3057    1.6023 C   0  0  0  0  0  0  0  0  0  0  0  0
   -1.9350   -8.6581    1.6033 N   0  0  0  0  0  0  0  0  0  0  0  0
   -0.8027   -9.3060    2.0507 N   0  0  0  0  0  0  0  0  0  0  0  0
   -0.8214  -10.5676    2.4763 C   0  0  0  0  0  0  0  0  0  0  0  0
   -2.0428  -11.2680    2.4837 C   0  0  0  0  0  0  0  0  0  0  0  0
   -2.0268  -12.5919    2.9599 C   0  0  0  0  0  0  0  0  0  0  0  0
   -0.8407  -13.1394    3.4402 C   0  0  0  0  0  0  0  0  0  0  0  0
    0.3051  -12.3833    3.4064 C   0  0  0  0  0  0  0  0  0  0  0  0
    0.3126  -11.1238    2.9318 N   0  0  0  0  0  0  0  0  0  0  0  0
    1.5144  -12.8092    3.8863 O   0  0  0  0  0  0  0  0  0  0  0  0
    1.5989  -14.1379    4.4491 C   0  0  1  0  0  0  0  0  0  0  0  0
    0.3614  -14.7715    4.9259 C   0  0  0  0  0  0  0  0  0  0  0  0
    0.2668  -15.4199    5.9540 O   0  0  0  0  0  0  0  0  0  0  0  0
   -0.8321  -14.4510    4.0709 C   0  0  0  0  0  0  0  0  0  0  0  0
   -1.7950  -15.1981    3.9958 O   0  0  0  0  0  0  0  0  0  0  0  0
    2.5502  -15.0060    3.8892 O   0  0  0  0  0  0  0  0  0  0  0  0
    2.8324  -14.4895    5.2294 C   0  0  1  0  0  0  0  0  0  0  0  0
    3.6441  -13.2545    5.3391 O   0  0  0  0  0  0  0  0  0  0  0  0
    4.2608  -14.4128    5.3460 C   0  0  0  0  0  0  0  0  0  0  0  0
    5.0601  -14.9071    6.1127 O   0  0  0  0  0  0  0  0  0  0  0  0
   -3.3814  -13.8014   -1.4333 C   0  0  0  0  0  0  0  0  0  0  0  0
   -2.2659  -13.5726   -0.9860 O   0  0  0  0  0  0  0  0  0  0  0  0
   -3.5933  -14.7510   -2.5871 C   0  0  0  0  0  0  0  0  0  0  0  0
   -2.6386  -15.2219   -3.1826 O   0  0  0  0  0  0  0  0  0  0  0  0
   -5.0053  -15.1283   -2.9799 C   0  0  0  0  0  0  0  0  0  0  0  0
   -5.2596  -16.1880   -3.5247 O   0  0  0  0  0  0  0  0  0  0  0  0
  1  2  1  0  0  0  0
  2  3  2  0  0  0  0
  3  4  1  0  0  0  0
  3 51  1  0  0  0  0
  4  5  1  0  0  0  0
  5  6  1  6  0  0  0
  5 47  1  0  0  0  0
  6  7  1  0  0  0  0
  7  8  2  0  0  0  0
  7 12  1  0  0  0  0
  8  9  1  0  0  0  0
  8 26  1  0  0  0  0
  9 10  1  0  0  0  0
 10 11  2  0  0  0  0
 10 21  1  0  0  0  0
 11 12  1  0  0  0  0
 11 13  1  0  0  0  0
 13 14  1  0  0  0  0
 13 19  1  0  0  0  0
 14 15  1  0  0  0  0
 15 16  2  0  0  0  0
 15 17  1  0  0  0  0
 17 18  1  0  0  0  0
 18 19  1  0  0  0  0
 18 25  1  0  0  0  0
 19 20  2  0  0  0  0
 20 21  1  0  0  0  0
 20 22  1  0  0  0  0
 22 23  1  0  0  0  0
 22 24  1  0  0  0  0
 23 24  1  0  0  0  0
 26 27  2  0  0  0  0
 26 31  1  0  0  0  0
 27 28  1  0  0  0  0
 28 29  2  0  0  0  0
 29 30  1  0  0  0  0
 30 31  2  0  0  0  0
 30 35  1  0  0  0  0
 31 32  1  0  0  0  0
 32 33  2  0  0  0  0
 33 34  1  0  0  0  0
 33 40  1  0  0  0  0
 34 35  2  0  0  0  0
 34 36  1  0  0  0  0
 37 36  1  6  0  0  0
 37 38  1  0  0  0  0
 37 42  1  0  0  0  0
 37 43  1  0  0  0  0
 38 39  2  0  0  0  0
 38 40  1  0  0  0  0
 40 41  2  0  0  0  0
 43 42  1  6  0  0  0
 43 44  1  0  0  0  0
 43 45  1  0  0  0  0
 44 45  1  0  0  0  0
 45 46  2  0  0  0  0
 47 48  2  0  0  0  0
 47 49  1  0  0  0  0
 49 50  2  0  0  0  0
 49 51  1  0  0  0  0
 51 52  2  0  0  0  0
M  CHG  1  21   1
M  END
$$$$