
 OpenBabel11222001173D

 54 62  0  0  1  0  0  0  0  0999 V2000
    1.9014   -3.5942   -5.3838 O   0  0  0  0  0  0  0  0  0  0  0  0
    1.9346   -2.3412   -4.8250 C   0  0  0  0  0  0  0  0  0  0  0  0
    1.8255   -2.1233   -3.5094 C   0  0  0  0  0  0  0  0  0  0  0  0
    1.6226   -3.1564   -2.6106 O   0  0  0  0  0  0  0  0  0  0  0  0
    2.5385   -3.1022   -1.5124 C   0  0  2  0  0  0  0  0  0  0  0  0
    2.3668   -4.2319   -0.6417 O   0  0  0  0  0  0  0  0  0  0  0  0
    2.5418   -5.5056   -1.1686 C   0  0  0  0  0  0  0  0  0  0  0  0
    1.9092   -6.6009   -0.6727 C   0  0  0  0  0  0  0  0  0  0  0  0
    2.1549   -7.8776   -1.2087 O   0  0  0  0  0  0  0  0  0  0  0  0
    2.9746   -8.0598   -2.3079 C   0  0  0  0  0  0  0  0  0  0  0  0
    3.6500   -7.0273   -2.8327 C   0  0  0  0  0  0  0  0  0  0  0  0
    3.5326   -5.6433   -2.2914 C   0  0  0  0  0  0  0  0  0  0  0  0
    4.5070   -7.1612   -4.0438 C   0  0  3  0  0  0  0  0  0  0  0  0
    5.8378   -6.8396   -3.6891 O   0  0  0  0  0  0  0  0  0  0  0  0
    6.7135   -6.8004   -4.7277 C   0  0  0  0  0  0  0  0  0  0  0  0
    7.7519   -6.1635   -4.6748 O   0  0  0  0  0  0  0  0  0  0  0  0
    6.3274   -7.4901   -5.8304 O   0  0  0  0  0  0  0  0  0  0  0  0
    5.4321   -8.5984   -5.7423 C   0  0  3  0  0  0  0  0  0  0  0  0
    4.5421   -8.5464   -4.5485 C   0  0  0  0  0  0  0  0  0  0  0  0
    3.8464   -9.5601   -3.9754 C   0  0  0  0  0  0  0  0  0  0  0  0
    3.0587   -9.3285   -2.8454 O   0  3  0  0  0  0  0  0  0  0  0  0
    3.8786  -10.9434   -4.5058 C   0  0  0  0  0  0  0  0  0  0  0  0
    4.8769  -11.8771   -4.0692 O   0  0  0  0  0  0  0  0  0  0  0  0
    3.4975  -12.0654   -3.6967 O   0  0  0  0  0  0  0  0  0  0  0  0
    4.5535   -8.5295   -6.8511 O   0  0  0  0  0  0  0  0  0  0  0  0
    0.9231   -6.6053    0.4753 C   0  0  0  0  0  0  0  0  0  0  0  0
    0.7192   -5.4077    1.0771 N   0  0  0  0  0  0  0  0  0  0  0  0
   -0.1280   -5.3559    2.1152 C   0  0  0  0  0  0  0  0  0  0  0  0
   -0.3602   -4.1602    2.6702 F   0  0  0  0  0  0  0  0  0  0  0  0
   -0.7796   -6.4559    2.6257 C   0  0  0  0  0  0  0  0  0  0  0  0
   -0.5990   -7.7050    2.0111 C   0  0  0  0  0  0  0  0  0  0  0  0
    0.2507   -7.7840    0.8791 C   0  0  0  0  0  0  0  0  0  0  0  0
    0.3685   -8.9450    0.2003 N   0  0  0  0  0  0  0  0  0  0  0  0
   -0.3882  -10.0041    0.5617 C   0  0  0  0  0  0  0  0  0  0  0  0
   -0.2951  -11.1662   -0.3321 C   0  0  0  0  0  0  0  0  0  0  0  0
    0.4535  -11.1793   -1.3065 O   0  0  0  0  0  0  0  0  0  0  0  0
   -1.1636  -12.3459    0.0544 C   0  0  0  0  0  0  0  0  0  0  0  0
   -0.9029  -13.4647   -0.3634 O   0  0  0  0  0  0  0  0  0  0  0  0
   -2.3298  -12.0073    0.9638 C   0  0  1  0  0  0  0  0  0  0  0  0
   -1.9868  -11.1051    2.0256 O   0  0  0  0  0  0  0  0  0  0  0  0
   -1.2169  -10.0325    1.6614 C   0  0  0  0  0  0  0  0  0  0  0  0
   -1.2626   -8.8842    2.4602 C   0  0  0  0  0  0  0  0  0  0  0  0
   -2.1660   -8.8557    3.5480 N   0  0  0  0  0  0  0  0  0  0  0  0
   -3.4949  -11.4813    0.1855 C   0  0  1  0  0  0  0  0  0  0  0  0
   -3.2598  -10.2827   -0.5967 O   0  0  0  0  0  0  0  0  0  0  0  0
   -4.2886  -12.4813   -0.4462 O   0  0  0  0  0  0  0  0  0  0  0  0
   -4.8990  -11.7541    0.5175 C   0  0  0  0  0  0  0  0  0  0  0  0
   -5.8561  -11.0278    0.4406 O   0  0  0  0  0  0  0  0  0  0  0  0
    2.4337   -1.8060   -0.7072 C   0  0  0  0  0  0  0  0  0  0  0  0
    2.9197   -1.6128    0.3977 O   0  0  0  0  0  0  0  0  0  0  0  0
    1.8182   -0.6715   -1.4933 C   0  0  0  0  0  0  0  0  0  0  0  0
    1.2268    0.2403   -0.9426 O   0  0  0  0  0  0  0  0  0  0  0  0
    1.9271   -0.7295   -3.0008 C   0  0  0  0  0  0  0  0  0  0  0  0
    2.1533    0.2503   -3.6864 O   0  0  0  0  0  0  0  0  0  0  0  0
  1  2  1  0  0  0  0
  2  3  2  0  0  0  0
  3  4  1  0  0  0  0
  3 53  1  0  0  0  0
  4  5  1  0  0  0  0
  5  6  1  1  0  0  0
  5 49  1  0  0  0  0
  6  7  1  0  0  0  0
  7  8  2  0  0  0  0
  7 12  1  0  0  0  0
  8  9  1  0  0  0  0
  8 26  1  0  0  0  0
  9 10  1  0  0  0  0
 10 11  2  0  0  0  0
 10 21  1  0  0  0  0
 11 12  1  0  0  0  0
 11 13  1  0  0  0  0
 13 14  1  0  0  0  0
 13 19  1  0  0  0  0
 14 15  1  0  0  0  0
 15 16  2  0  0  0  0
 15 17  1  0  0  0  0
 17 18  1  0  0  0  0
 18 19  1  0  0  0  0
 18 25  1  0  0  0  0
 19 20  2  0  0  0  0
 20 21  1  0  0  0  0
 20 22  1  0  0  0  0
 22 23  1  0  0  0  0
 22 24  1  0  0  0  0
 23 24  1  0  0  0  0
 26 27  2  0  0  0  0
 26 32  1  0  0  0  0
 27 28  1  0  0  0  0
 28 29  1  0  0  0  0
 28 30  2  0  0  0  0
 30 31  1  0  0  0  0
 31 32  2  0  0  0  0
 31 42  1  0  0  0  0
 32 33  1  0  0  0  0
 33 34  2  0  0  0  0
 34 35  1  0  0  0  0
 34 41  1  0  0  0  0
 35 36  2  0  0  0  0
 35 37  1  0  0  0  0
 37 38  2  0  0  0  0
 39 37  1  6  0  0  0
 39 40  1  0  0  0  0
 39 44  1  0  0  0  0
 40 41  1  0  0  0  0
 41 42  2  0  0  0  0
 42 43  1  0  0  0  0
 44 45  1  6  0  0  0
 44 46  1  0  0  0  0
 44 47  1  0  0  0  0
 46 47  1  0  0  0  0
 47 48  2  0  0  0  0
 49 50  2  0  0  0  0
 49 51  1  0  0  0  0
 51 52  2  0  0  0  0
 51 53  1  0  0  0  0
 53 54  2  0  0  0  0
M  CHG  1  21   1
M  END
$$$$