
 OpenBabel11222023303D

 54 63  0  0  1  0  0  0  0  0999 V2000
   18.5821   -0.2337   -6.9764 O   0  0  0  0  0  0  0  0  0  0  0  0
   18.9432    0.0926   -5.6915 C   0  0  0  0  0  0  0  0  0  0  0  0
   18.0538    0.3412   -4.7203 C   0  0  0  0  0  0  0  0  0  0  0  0
   16.6976    0.2252   -4.9686 O   0  0  0  0  0  0  0  0  0  0  0  0
   15.7832    0.9303   -4.1441 C   0  0  2  0  0  0  0  0  0  0  0  0
   14.5847    1.3445   -4.8435 O   0  0  0  0  0  0  0  0  0  0  0  0
   14.6641    2.0759   -6.0231 C   0  0  0  0  0  0  0  0  0  0  0  0
   13.5938    2.7592   -6.4794 C   0  0  0  0  0  0  0  0  0  0  0  0
   13.5941    3.4881   -7.6596 O   0  0  0  0  0  0  0  0  0  0  0  0
   14.7850    3.6681   -8.3413 C   0  0  0  0  0  0  0  0  0  0  0  0
   15.9150    3.0371   -7.9835 C   0  0  0  0  0  0  0  0  0  0  0  0
   15.9416    2.0889   -6.8289 C   0  0  0  0  0  0  0  0  0  0  0  0
   17.2200    3.3539   -8.6813 C   0  0  3  0  0  0  0  0  0  0  0  0
   17.8114    2.1463   -9.2084 N   0  0  0  0  0  0  0  0  0  0  0  0
   18.9578    2.2205   -9.9155 C   0  0  0  0  0  0  0  0  0  0  0  0
   19.7088    1.2106  -10.1656 N   0  0  0  0  0  0  0  0  0  0  0  0
   19.3027    3.4545  -10.3358 N   0  0  0  0  0  0  0  0  0  0  0  0
   18.3413    4.4750  -10.6205 C   0  0  3  0  0  0  0  0  0  0  0  0
   17.0806    4.2884   -9.8475 C   0  0  0  0  0  0  0  0  0  0  0  0
   15.8857    4.8343  -10.1717 C   0  0  0  0  0  0  0  0  0  0  0  0
   14.7790    4.5589   -9.3800 N   0  0  0  0  0  0  0  0  0  0  0  0
   15.6546    5.7177  -11.3382 C   0  0  0  0  0  0  0  0  0  0  0  0
   15.3217    5.1806  -12.6275 O   0  0  0  0  0  0  0  0  0  0  0  0
   14.3367    5.9214  -11.8817 O   0  0  0  0  0  0  0  0  0  0  0  0
   18.9207    5.6886  -10.1972 O   0  0  0  0  0  0  0  0  0  0  0  0
   12.3394    2.9047   -5.7307 C   0  0  0  0  0  0  0  0  0  0  0  0
   12.2216    4.0439   -4.9427 C   0  0  0  0  0  0  0  0  0  0  0  0
   11.0945    4.2871   -4.2713 N   0  3  0  0  0  0  0  0  0  0  0  0
   10.9958    5.4170   -3.5453 F   0  0  0  0  0  0  0  0  0  0  0  0
   10.0591    3.4667   -4.3021 N   0  0  0  0  0  0  0  0  0  0  0  0
   10.1169    2.3517   -5.0416 C   0  0  0  0  0  0  0  0  0  0  0  0
   11.2512    2.0157   -5.8025 C   0  0  0  0  0  0  0  0  0  0  0  0
   11.2221    0.8397   -6.5956 C   0  0  0  0  0  0  0  0  0  0  0  0
   10.0911    0.0094   -6.6147 C   0  0  0  0  0  0  0  0  0  0  0  0
    8.9922    0.3216   -5.8316 C   0  0  0  0  0  0  0  0  0  0  0  0
    9.0175    1.4931   -5.0731 C   0  0  0  0  0  0  0  0  0  0  0  0
    7.9351    1.8119   -4.3447 F   0  0  0  0  0  0  0  0  0  0  0  0
    7.8544   -0.4395   -5.7828 O   0  0  0  0  0  0  0  0  0  0  0  0
    7.9963   -1.7973   -6.2621 C   0  0  1  0  0  0  0  0  0  0  0  0
    8.7575   -1.9708   -7.5053 C   0  0  0  0  0  0  0  0  0  0  0  0
    8.3953   -2.6546   -8.4439 O   0  0  0  0  0  0  0  0  0  0  0  0
   10.0431   -1.1726   -7.4910 C   0  0  0  0  0  0  0  0  0  0  0  0
   10.9989   -1.4835   -8.1814 O   0  0  0  0  0  0  0  0  0  0  0  0
    8.1928   -2.7948   -5.2924 O   0  0  0  0  0  0  0  0  0  0  0  0
    6.9010   -2.7780   -5.9893 C   0  0  1  0  0  0  0  0  0  0  0  0
    5.7914   -2.0213   -5.3434 O   0  0  0  0  0  0  0  0  0  0  0  0
    5.9344   -3.2941   -5.0659 C   0  0  0  0  0  0  0  0  0  0  0  0
    5.1736   -4.2350   -5.0759 O   0  0  0  0  0  0  0  0  0  0  0  0
   16.3388    2.0785   -3.3187 C   0  0  0  0  0  0  0  0  0  0  0  0
   15.8331    3.1840   -3.1864 O   0  0  0  0  0  0  0  0  0  0  0  0
   17.6269    1.6937   -2.6449 C   0  0  0  0  0  0  0  0  0  0  0  0
   17.8382    2.0425   -1.4977 O   0  0  0  0  0  0  0  0  0  0  0  0
   18.6023    0.8452   -3.4299 C   0  0  0  0  0  0  0  0  0  0  0  0
   19.7465    0.6636   -3.0503 O   0  0  0  0  0  0  0  0  0  0  0  0
  1  2  1  0  0  0  0
  2  3  2  0  0  0  0
  3  4  1  0  0  0  0
  3 53  1  0  0  0  0
  4  5  1  0  0  0  0
  5  6  1  6  0  0  0
  5 49  1  0  0  0  0
  6  7  1  0  0  0  0
  7  8  2  0  0  0  0
  7 12  1  0  0  0  0
  8  9  1  0  0  0  0
  8 26  1  0  0  0  0
  9 10  1  0  0  0  0
 10 11  2  0  0  0  0
 10 21  1  0  0  0  0
 11 12  1  0  0  0  0
 11 13  1  0  0  0  0
 13 14  1  0  0  0  0
 13 19  1  0  0  0  0
 14 15  1  0  0  0  0
 15 16  2  0  0  0  0
 15 17  1  0  0  0  0
 17 18  1  0  0  0  0
 18 19  1  0  0  0  0
 18 25  1  0  0  0  0
 19 20  2  0  0  0  0
 20 21  1  0  0  0  0
 20 22  1  0  0  0  0
 22 23  1  0  0  0  0
 22 24  1  0  0  0  0
 23 24  1  0  0  0  0
 26 27  2  0  0  0  0
 26 32  1  0  0  0  0
 27 28  1  0  0  0  0
 28 29  1  0  0  0  0
 28 30  2  0  0  0  0
 30 31  1  0  0  0  0
 31 32  2  0  0  0  0
 31 36  1  0  0  0  0
 32 33  1  0  0  0  0
 33 34  2  0  0  0  0
 34 35  1  0  0  0  0
 34 42  1  0  0  0  0
 35 36  2  0  0  0  0
 35 38  1  0  0  0  0
 36 37  1  0  0  0  0
 39 38  1  1  0  0  0
 39 40  1  0  0  0  0
 39 44  1  0  0  0  0
 39 45  1  0  0  0  0
 40 41  2  0  0  0  0
 40 42  1  0  0  0  0
 42 43  2  0  0  0  0
 45 44  1  1  0  0  0
 45 46  1  0  0  0  0
 45 47  1  0  0  0  0
 46 47  1  0  0  0  0
 47 48  2  0  0  0  0
 49 50  2  0  0  0  0
 49 51  1  0  0  0  0
 51 52  2  0  0  0  0
 51 53  1  0  0  0  0
 53 54  2  0  0  0  0
M  CHG  1  28   1
M  END
$$$$