
 OpenBabel11272001573D

 54 62  0  0  1  0  0  0  0  0999 V2000
    4.1454   -4.0613   -2.3726 O   0  0  0  0  0  0  0  0  0  0  0  0
    4.4387   -2.8409   -1.8179 C   0  0  0  0  0  0  0  0  0  0  0  0
    3.8636   -2.3950   -0.6938 C   0  0  0  0  0  0  0  0  0  0  0  0
    2.8885   -3.1390   -0.0489 O   0  0  0  0  0  0  0  0  0  0  0  0
    2.9262   -3.0303    1.3741 C   0  0  2  0  0  0  0  0  0  0  0  0
    2.0240   -3.9499    2.0187 O   0  0  0  0  0  0  0  0  0  0  0  0
    2.2552   -5.3125    1.8458 C   0  0  0  0  0  0  0  0  0  0  0  0
    1.4389   -6.2316    2.4080 C   0  0  0  0  0  0  0  0  0  0  0  0
    1.6247   -7.6054    2.2793 O   0  0  0  0  0  0  0  0  0  0  0  0
    2.7325   -8.0758    1.5872 C   0  0  0  0  0  0  0  0  0  0  0  0
    3.6227   -7.2446    1.0212 C   0  0  0  0  0  0  0  0  0  0  0  0
    3.4477   -5.7672    1.0383 C   0  0  0  0  0  0  0  0  0  0  0  0
    4.8367   -7.7751    0.3030 C   0  0  3  0  0  0  0  0  0  0  0  0
    5.9836   -7.2536    0.9521 O   0  0  0  0  0  0  0  0  0  0  0  0
    7.2049   -7.7208    0.5715 C   0  0  0  0  0  0  0  0  0  0  0  0
    8.2199   -7.1307    0.8941 O   0  0  0  0  0  0  0  0  0  0  0  0
    7.2338   -8.8389   -0.2013 O   0  0  0  0  0  0  0  0  0  0  0  0
    6.1866   -9.6780   -0.2922 C   0  0  0  0  0  0  0  0  0  0  0  0
    6.2429  -10.7244   -0.9229 O   0  0  0  0  0  0  0  0  0  0  0  0
    4.9520   -9.2430    0.3418 C   0  0  0  0  0  0  0  0  0  0  0  0
    4.0183  -10.0471    0.8930 C   0  0  0  0  0  0  0  0  0  0  0  0
    2.9144   -9.4327    1.4970 N   0  0  0  0  0  0  0  0  0  0  0  0
    4.0884  -11.5236    0.9410 C   0  0  3  0  0  0  0  0  0  0  0  0
    3.0352  -12.2419    1.5793 N   0  0  0  0  0  0  0  0  0  0  0  0
    4.0995  -12.1500    2.2169 N   0  0  0  0  0  0  0  0  0  0  0  0
    0.3005   -5.8706    3.2699 C   0  0  0  0  0  0  0  0  0  0  0  0
    0.5403   -5.7590    4.6314 C   0  0  0  0  0  0  0  0  0  0  0  0
   -0.4416   -5.4185    5.4688 N   0  3  0  0  0  0  0  0  0  0  0  0
   -0.1810   -5.3523    6.7881 F   0  0  0  0  0  0  0  0  0  0  0  0
   -1.6640   -5.1398    5.0589 N   0  0  0  0  0  0  0  0  0  0  0  0
   -1.9700   -5.2421    3.7588 C   0  0  0  0  0  0  0  0  0  0  0  0
   -1.0072   -5.6402    2.8082 C   0  0  0  0  0  0  0  0  0  0  0  0
   -1.4009   -5.8173    1.4645 C   0  0  0  0  0  0  0  0  0  0  0  0
   -2.7242   -5.5971    1.0713 C   0  0  0  0  0  0  0  0  0  0  0  0
   -3.1418   -5.8925   -0.3049 C   0  0  0  0  0  0  0  0  0  0  0  0
   -2.3784   -6.4202   -1.0976 O   0  0  0  0  0  0  0  0  0  0  0  0
   -4.5706   -5.5614   -0.6666 C   0  0  0  0  0  0  0  0  0  0  0  0
   -5.1007   -6.0492   -1.6537 O   0  0  0  0  0  0  0  0  0  0  0  0
   -5.2340   -4.5951    0.2838 C   0  0  1  0  0  0  0  0  0  0  0  0
   -4.9660   -4.8627    1.6699 O   0  0  0  0  0  0  0  0  0  0  0  0
   -3.6595   -5.1430    1.9892 C   0  0  0  0  0  0  0  0  0  0  0  0
   -3.2818   -4.9466    3.3336 C   0  0  0  0  0  0  0  0  0  0  0  0
   -4.2952   -4.6583    4.2844 N   0  0  0  0  0  0  0  0  0  0  0  0
   -4.8902   -3.1688   -0.0498 C   0  0  1  0  0  0  0  0  0  0  0  0
   -3.4997   -2.7965    0.0330 O   0  0  0  0  0  0  0  0  0  0  0  0
   -5.6154   -2.6100   -1.1462 O   0  0  0  0  0  0  0  0  0  0  0  0
   -5.8873   -2.0441    0.1382 C   0  0  3  0  0  0  0  0  0  0  0  0
   -5.3161   -0.7408    0.3455 O   0  0  0  0  0  0  0  0  0  0  0  0
    2.5540   -1.6024    1.7146 C   0  0  0  0  0  0  0  0  0  0  0  0
    1.6380   -1.2502    2.4420 O   0  0  0  0  0  0  0  0  0  0  0  0
    3.4945   -0.6175    1.0587 C   0  0  0  0  0  0  0  0  0  0  0  0
    3.6616    0.4858    1.5503 O   0  0  0  0  0  0  0  0  0  0  0  0
    4.2838   -1.0655   -0.1617 C   0  0  0  0  0  0  0  0  0  0  0  0
    5.2109   -0.4135   -0.6088 O   0  0  0  0  0  0  0  0  0  0  0  0
  1  2  1  0  0  0  0
  2  3  2  0  0  0  0
  3  4  1  0  0  0  0
  3 53  1  0  0  0  0
  4  5  1  0  0  0  0
  5  6  1  1  0  0  0
  5 49  1  0  0  0  0
  6  7  1  0  0  0  0
  7  8  2  0  0  0  0
  7 12  1  0  0  0  0
  8  9  1  0  0  0  0
  8 26  1  0  0  0  0
  9 10  1  0  0  0  0
 10 11  2  0  0  0  0
 10 22  1  0  0  0  0
 11 12  1  0  0  0  0
 11 13  1  0  0  0  0
 13 14  1  0  0  0  0
 13 20  1  0  0  0  0
 14 15  1  0  0  0  0
 15 16  2  0  0  0  0
 15 17  1  0  0  0  0
 17 18  1  0  0  0  0
 18 19  2  0  0  0  0
 18 20  1  0  0  0  0
 20 21  2  0  0  0  0
 21 22  1  0  0  0  0
 21 23  1  0  0  0  0
 23 24  1  0  0  0  0
 23 25  1  0  0  0  0
 24 25  2  0  0  0  0
 26 27  2  0  0  0  0
 26 32  1  0  0  0  0
 27 28  1  0  0  0  0
 28 29  1  0  0  0  0
 28 30  2  0  0  0  0
 30 31  1  0  0  0  0
 31 32  2  0  0  0  0
 31 42  1  0  0  0  0
 32 33  1  0  0  0  0
 33 34  2  0  0  0  0
 34 35  1  0  0  0  0
 34 41  1  0  0  0  0
 35 36  2  0  0  0  0
 35 37  1  0  0  0  0
 37 38  2  0  0  0  0
 39 37  1  6  0  0  0
 39 40  1  0  0  0  0
 39 44  1  0  0  0  0
 40 41  1  0  0  0  0
 41 42  2  0  0  0  0
 42 43  1  0  0  0  0
 44 45  1  1  0  0  0
 44 46  1  0  0  0  0
 44 47  1  0  0  0  0
 46 47  1  0  0  0  0
 47 48  1  0  0  0  0
 49 50  2  0  0  0  0
 49 51  1  0  0  0  0
 51 52  2  0  0  0  0
 51 53  1  0  0  0  0
 53 54  2  0  0  0  0
M  CHG  1  28   1
M  END
$$$$