
 OpenBabel11222000533D

 54 62  0  0  1  0  0  0  0  0999 V2000
   -4.8444   -9.0977    2.7246 O   0  0  0  0  0  0  0  0  0  0  0  0
   -5.1611   -7.8562    3.2177 C   0  0  0  0  0  0  0  0  0  0  0  0
   -6.3220   -7.2500    2.9441 C   0  0  0  0  0  0  0  0  0  0  0  0
   -7.2452   -7.8516    2.1029 O   0  0  0  0  0  0  0  0  0  0  0  0
   -8.6012   -7.5231    2.3909 C   0  0  2  0  0  0  0  0  0  0  0  0
   -9.4993   -8.2555    1.5202 O   0  0  0  0  0  0  0  0  0  0  0  0
   -9.4539   -9.6458    1.5576 C   0  0  0  0  0  0  0  0  0  0  0  0
   -9.8315  -10.3854    0.4896 C   0  0  0  0  0  0  0  0  0  0  0  0
   -9.8632  -11.7888    0.5121 O   0  0  0  0  0  0  0  0  0  0  0  0
   -9.4990  -12.4780    1.6826 C   0  0  0  0  0  0  0  0  0  0  0  0
   -9.0965  -11.8129    2.7816 C   0  0  0  0  0  0  0  0  0  0  0  0
   -9.0127  -10.3172    2.8343 C   0  0  0  0  0  0  0  0  0  0  0  0
   -8.6542  -12.5231    4.0324 C   0  0  3  0  0  0  0  0  0  0  0  0
   -9.4839  -12.1034    5.1005 O   0  0  0  0  0  0  0  0  0  0  0  0
   -9.1201  -12.5782    6.3252 C   0  0  0  0  0  0  0  0  0  0  0  0
   -9.4609  -12.0250    7.3569 O   0  0  0  0  0  0  0  0  0  0  0  0
   -8.3227  -13.6745    6.2934 O   0  0  0  0  0  0  0  0  0  0  0  0
   -8.4939  -14.6231    5.2481 C   0  0  3  0  0  0  0  0  0  0  0  0
   -8.8426  -13.9861    3.9437 C   0  0  0  0  0  0  0  0  0  0  0  0
   -9.2795  -14.6027    2.8224 C   0  0  0  0  0  0  0  0  0  0  0  0
   -9.5641  -13.8589    1.6783 O   0  3  0  0  0  0  0  0  0  0  0  0
   -9.4760  -16.0720    2.7056 C   0  0  0  0  0  0  0  0  0  0  0  0
  -10.4878  -16.5985    1.8295 O   0  0  0  0  0  0  0  0  0  0  0  0
   -9.0946  -16.7668    1.5086 O   0  0  0  0  0  0  0  0  0  0  0  0
   -7.2579  -15.2674    5.0142 O   0  0  0  0  0  0  0  0  0  0  0  0
  -10.2462   -9.7655   -0.8005 C   0  0  0  0  0  0  0  0  0  0  0  0
  -11.5847   -9.4181   -0.9799 C   0  0  0  0  0  0  0  0  0  0  0  0
  -11.9947   -8.8202   -2.1065 N   0  3  0  0  0  0  0  0  0  0  0  0
  -13.3036   -8.5457   -2.2696 F   0  0  0  0  0  0  0  0  0  0  0  0
  -11.1685   -8.4938   -3.0791 N   0  0  0  0  0  0  0  0  0  0  0  0
   -9.8694   -8.7753   -2.9706 C   0  0  0  0  0  0  0  0  0  0  0  0
   -9.3450   -9.4497   -1.8485 C   0  0  0  0  0  0  0  0  0  0  0  0
   -7.9645   -9.7657   -1.8558 C   0  0  0  0  0  0  0  0  0  0  0  0
   -7.1381   -9.3954   -2.9331 C   0  0  0  0  0  0  0  0  0  0  0  0
   -5.7357   -9.8182   -2.9648 C   0  0  0  0  0  0  0  0  0  0  0  0
   -5.2227  -10.3830   -2.0135 O   0  0  0  0  0  0  0  0  0  0  0  0
   -5.0004   -9.5739   -4.2622 C   0  0  0  0  0  0  0  0  0  0  0  0
   -4.1112  -10.3270   -4.6237 O   0  0  0  0  0  0  0  0  0  0  0  0
   -5.4841   -8.3556   -5.0118 C   0  0  1  0  0  0  0  0  0  0  0  0
   -6.9204   -8.2680   -5.0821 O   0  0  0  0  0  0  0  0  0  0  0  0
   -7.6456   -8.6816   -4.0032 C   0  0  0  0  0  0  0  0  0  0  0  0
   -9.0107   -8.3960   -4.0057 C   0  0  0  0  0  0  0  0  0  0  0  0
   -9.5303   -7.7373   -5.0550 F   0  0  0  0  0  0  0  0  0  0  0  0
   -4.8911   -7.0754   -4.4829 C   0  0  1  0  0  0  0  0  0  0  0  0
   -5.3086   -5.8767   -5.1560 O   0  0  0  0  0  0  0  0  0  0  0  0
   -4.9693   -6.8677   -2.9198 N   0  0  0  0  0  0  0  0  0  0  0  0
   -3.8734   -6.9735   -3.5350 C   0  0  0  0  0  0  0  0  0  0  0  0
   -2.5882   -7.0281   -3.3964 O   0  0  0  0  0  0  0  0  0  0  0  0
   -8.7960   -6.0321    2.1739 C   0  0  0  0  0  0  0  0  0  0  0  0
   -9.6607   -5.5313    1.4701 O   0  0  0  0  0  0  0  0  0  0  0  0
   -7.7845   -5.2027    2.9380 C   0  0  0  0  0  0  0  0  0  0  0  0
   -7.9442   -4.0023    3.0715 O   0  0  0  0  0  0  0  0  0  0  0  0
   -6.5780   -5.9046    3.5362 C   0  0  0  0  0  0  0  0  0  0  0  0
   -5.9315   -5.4270    4.4505 O   0  0  0  0  0  0  0  0  0  0  0  0
  1  2  1  0  0  0  0
  2  3  2  0  0  0  0
  3  4  1  0  0  0  0
  3 53  1  0  0  0  0
  4  5  1  0  0  0  0
  5  6  1  6  0  0  0
  5 49  1  0  0  0  0
  6  7  1  0  0  0  0
  7  8  2  0  0  0  0
  7 12  1  0  0  0  0
  8  9  1  0  0  0  0
  8 26  1  0  0  0  0
  9 10  1  0  0  0  0
 10 11  2  0  0  0  0
 10 21  1  0  0  0  0
 11 12  1  0  0  0  0
 11 13  1  0  0  0  0
 13 14  1  0  0  0  0
 13 19  1  0  0  0  0
 14 15  1  0  0  0  0
 15 16  2  0  0  0  0
 15 17  1  0  0  0  0
 17 18  1  0  0  0  0
 18 19  1  0  0  0  0
 18 25  1  0  0  0  0
 19 20  2  0  0  0  0
 20 21  1  0  0  0  0
 20 22  1  0  0  0  0
 22 23  1  0  0  0  0
 22 24  1  0  0  0  0
 23 24  1  0  0  0  0
 26 27  2  0  0  0  0
 26 32  1  0  0  0  0
 27 28  1  0  0  0  0
 28 29  1  0  0  0  0
 28 30  2  0  0  0  0
 30 31  1  0  0  0  0
 31 32  2  0  0  0  0
 31 42  1  0  0  0  0
 32 33  1  0  0  0  0
 33 34  2  0  0  0  0
 34 35  1  0  0  0  0
 34 41  1  0  0  0  0
 35 36  2  0  0  0  0
 35 37  1  0  0  0  0
 37 38  2  0  0  0  0
 39 37  1  1  0  0  0
 39 40  1  0  0  0  0
 39 44  1  0  0  0  0
 40 41  1  0  0  0  0
 41 42  2  0  0  0  0
 42 43  1  0  0  0  0
 44 45  1  6  0  0  0
 44 46  1  0  0  0  0
 44 47  1  0  0  0  0
 46 47  2  0  0  0  0
 47 48  1  0  0  0  0
 49 50  2  0  0  0  0
 49 51  1  0  0  0  0
 51 52  2  0  0  0  0
 51 53  1  0  0  0  0
 53 54  2  0  0  0  0
M  CHG  2  21   1  28   1
M  END
$$$$