
 OpenBabel11152012153D

 52 60  0  0  1  0  0  0  0  0999 V2000
    4.1667   -1.4983   -5.1531 O   0  0  0  0  0  0  0  0  0  0  0  0
    4.9552   -1.0060   -4.1441 C   0  0  0  0  0  0  0  0  0  0  0  0
    4.7757   -1.3279   -2.8571 C   0  0  0  0  0  0  0  0  0  0  0  0
    3.7511   -2.1713   -2.4664 O   0  0  0  0  0  0  0  0  0  0  0  0
    4.1423   -3.0773   -1.4311 C   0  0  2  0  0  0  0  0  0  0  0  0
    3.1587   -4.0898   -1.2122 O   0  0  0  0  0  0  0  0  0  0  0  0
    3.0959   -5.1062   -2.1606 C   0  0  0  0  0  0  0  0  0  0  0  0
    2.6676   -6.3414   -1.8258 C   0  0  0  0  0  0  0  0  0  0  0  0
    2.5683   -7.3892   -2.7347 O   0  0  0  0  0  0  0  0  0  0  0  0
    2.9506   -7.1827   -4.0488 C   0  0  0  0  0  0  0  0  0  0  0  0
    3.3644   -5.9862   -4.4960 C   0  0  0  0  0  0  0  0  0  0  0  0
    3.4415   -4.7948   -3.5979 C   0  0  0  0  0  0  0  0  0  0  0  0
    3.7588   -5.7961   -5.9415 C   0  0  3  0  0  0  0  0  0  0  0  0
    5.1066   -5.3249   -5.9555 O   0  0  0  0  0  0  0  0  0  0  0  0
    5.8758   -5.3863   -7.0691 C   0  0  0  0  0  0  0  0  0  0  0  0
    6.9648   -4.8279   -7.1113 O   0  0  0  0  0  0  0  0  0  0  0  0
    5.4247   -6.1257   -8.1118 O   0  0  0  0  0  0  0  0  0  0  0  0
    4.1652   -6.7840   -8.1254 C   0  0  3  0  0  0  0  0  0  0  0  0
    3.6822   -7.0389   -6.7549 C   0  0  0  0  0  0  0  0  0  0  0  0
    3.2515   -8.2107   -6.2377 C   0  0  0  0  0  0  0  0  0  0  0  0
    2.9022   -8.2580   -4.8980 N   0  0  0  0  0  0  0  0  0  0  0  0
    3.1251   -9.4704   -7.0011 C   0  0  0  0  0  0  0  0  0  0  0  0
    2.0819  -10.4233   -6.7340 O   0  0  0  0  0  0  0  0  0  0  0  0
    2.0721   -9.6634   -7.9597 O   0  0  0  0  0  0  0  0  0  0  0  0
    3.2273   -5.9747   -8.8098 O   0  0  0  0  0  0  0  0  0  0  0  0
    2.2339   -6.7003   -0.4676 C   0  0  0  0  0  0  0  0  0  0  0  0
    0.9051   -6.5755   -0.2624 N   0  0  0  0  0  0  0  0  0  0  0  0
    0.4142   -6.8866    0.9012 N   0  0  0  0  0  0  0  0  0  0  0  0
    1.1665   -7.3359    1.8791 N   0  0  0  0  0  0  0  0  0  0  0  0
    2.4860   -7.4870    1.7108 C   0  0  0  0  0  0  0  0  0  0  0  0
    3.1091   -7.1672    0.5117 C   0  0  0  0  0  0  0  0  0  0  0  0
    4.5134   -7.3458    0.3767 C   0  0  0  0  0  0  0  0  0  0  0  0
    5.2804   -7.8528    1.4351 C   0  0  0  0  0  0  0  0  0  0  0  0
    4.6354   -8.1970    2.6211 C   0  0  0  0  0  0  0  0  0  0  0  0
    3.2597   -7.9925    2.7516 C   0  0  0  0  0  0  0  0  0  0  0  0
    5.2629   -8.7634    3.7014 O   0  0  0  0  0  0  0  0  0  0  0  0
    6.6192   -9.2242    3.5031 C   0  0  2  0  0  0  0  0  0  0  0  0
    7.4159   -8.2185    2.6572 C   0  0  3  0  0  0  0  0  0  0  0  0
    6.7595   -8.0557    1.2822 C   0  0  3  0  0  0  0  0  0  0  0  0
    7.0299   -9.2116    0.4822 O   0  0  0  0  0  0  0  0  0  0  0  0
    8.7965   -8.5692    2.5385 O   0  0  0  0  0  0  0  0  0  0  0  0
    6.6837  -10.6571    3.0100 C   0  0  1  0  0  0  0  0  0  0  0  0
    8.0088  -11.2001    2.7963 O   0  0  0  0  0  0  0  0  0  0  0  0
    5.7888  -11.5704    3.6938 O   0  0  0  0  0  0  0  0  0  0  0  0
    5.5921  -11.3702    2.3896 C   0  0  0  0  0  0  0  0  0  0  0  0
    4.6272  -11.0623    1.7233 O   0  0  0  0  0  0  0  0  0  0  0  0
    4.3762   -2.2617   -0.1723 C   0  0  0  0  0  0  0  0  0  0  0  0
    3.9083   -2.4729    0.9357 O   0  0  0  0  0  0  0  0  0  0  0  0
    5.3588   -1.1379   -0.4121 C   0  0  0  0  0  0  0  0  0  0  0  0
    5.9087   -0.5861    0.5276 O   0  0  0  0  0  0  0  0  0  0  0  0
    5.7037   -0.7557   -1.8410 C   0  0  0  0  0  0  0  0  0  0  0  0
    6.6891   -0.0906   -2.1120 O   0  0  0  0  0  0  0  0  0  0  0  0
  1  2  1  0  0  0  0
  2  3  2  0  0  0  0
  3  4  1  0  0  0  0
  3 51  1  0  0  0  0
  4  5  1  0  0  0  0
  5  6  1  1  0  0  0
  5 47  1  0  0  0  0
  6  7  1  0  0  0  0
  7  8  2  0  0  0  0
  7 12  1  0  0  0  0
  8  9  1  0  0  0  0
  8 26  1  0  0  0  0
  9 10  1  0  0  0  0
 10 11  2  0  0  0  0
 10 21  1  0  0  0  0
 11 12  1  0  0  0  0
 11 13  1  0  0  0  0
 13 14  1  0  0  0  0
 13 19  1  0  0  0  0
 14 15  1  0  0  0  0
 15 16  2  0  0  0  0
 15 17  1  0  0  0  0
 17 18  1  0  0  0  0
 18 19  1  0  0  0  0
 18 25  1  0  0  0  0
 19 20  2  0  0  0  0
 20 21  1  0  0  0  0
 20 22  1  0  0  0  0
 22 23  1  0  0  0  0
 22 24  1  0  0  0  0
 23 24  1  0  0  0  0
 26 27  2  0  0  0  0
 26 31  1  0  0  0  0
 27 28  1  0  0  0  0
 28 29  2  0  0  0  0
 29 30  1  0  0  0  0
 30 31  2  0  0  0  0
 30 35  1  0  0  0  0
 31 32  1  0  0  0  0
 32 33  2  0  0  0  0
 33 34  1  0  0  0  0
 33 39  1  0  0  0  0
 34 35  2  0  0  0  0
 34 36  1  0  0  0  0
 37 36  1  6  0  0  0
 37 38  1  0  0  0  0
 37 42  1  0  0  0  0
 38 39  1  0  0  0  0
 38 41  1  0  0  0  0
 39 40  1  0  0  0  0
 42 43  1  6  0  0  0
 42 44  1  0  0  0  0
 42 45  1  0  0  0  0
 44 45  1  0  0  0  0
 45 46  2  0  0  0  0
 47 48  2  0  0  0  0
 47 49  1  0  0  0  0
 49 50  2  0  0  0  0
 49 51  1  0  0  0  0
 51 52  2  0  0  0  0
M  END
$$$$