
 OpenBabel11212021173D

 53 61  0  0  1  0  0  0  0  0999 V2000
   -2.0707    1.6429   -4.2504 O   0  0  0  0  0  0  0  0  0  0  0  0
   -1.6218    1.4924   -2.9635 C   0  0  0  0  0  0  0  0  0  0  0  0
   -0.5829    0.7083   -2.6569 C   0  0  0  0  0  0  0  0  0  0  0  0
    0.0627   -0.0226   -3.6408 O   0  0  0  0  0  0  0  0  0  0  0  0
    1.4717   -0.0784   -3.4477 C   0  0  2  0  0  0  0  0  0  0  0  0
    2.1215   -0.7283   -4.5514 O   0  0  0  0  0  0  0  0  0  0  0  0
    1.9538   -0.1450   -5.7991 C   0  0  0  0  0  0  0  0  0  0  0  0
    1.9676   -0.9083   -6.9088 C   0  0  0  0  0  0  0  0  0  0  0  0
    1.9130   -0.3939   -8.1937 O   0  0  0  0  0  0  0  0  0  0  0  0
    1.9980    0.9785   -8.3664 C   0  0  0  0  0  0  0  0  0  0  0  0
    2.0137    1.8350   -7.3291 C   0  0  0  0  0  0  0  0  0  0  0  0
    1.8884    1.3613   -5.9132 C   0  0  0  0  0  0  0  0  0  0  0  0
    2.1606    3.3212   -7.5680 C   0  0  3  0  0  0  0  0  0  0  0  0
    3.3134    3.7581   -6.8442 O   0  0  0  0  0  0  0  0  0  0  0  0
    3.6426    5.0580   -6.9661 C   0  0  0  0  0  0  0  0  0  0  0  0
    4.4311    5.6020   -6.1200 N   0  0  0  0  0  0  0  0  0  0  0  0
    3.0996    5.7669   -7.9714 O   0  0  0  0  0  0  0  0  0  0  0  0
    2.6502    5.1355   -9.1812 C   0  0  0  0  0  0  0  0  0  0  0  0
    2.3645    3.6881   -9.0021 C   0  0  0  0  0  0  0  0  0  0  0  0
    2.3253    2.7653   -9.9886 C   0  0  0  0  0  0  0  0  0  0  0  0
    2.0970    1.4404   -9.6517 N   0  0  0  0  0  0  0  0  0  0  0  0
    2.5258    3.0561  -11.4280 C   0  0  0  0  0  0  0  0  0  0  0  0
    3.8315    3.0293  -12.0240 O   0  0  0  0  0  0  0  0  0  0  0  0
    2.8625    2.0210  -12.3701 O   0  0  0  0  0  0  0  0  0  0  0  0
    2.1505   -2.3638   -6.8600 C   0  0  0  0  0  0  0  0  0  0  0  0
    3.4540   -2.8329   -6.9272 C   0  0  0  0  0  0  0  0  0  0  0  0
    3.7015   -4.1421   -6.8727 N   0  3  0  0  0  0  0  0  0  0  0  0
    4.9764   -4.5702   -6.9382 F   0  0  0  0  0  0  0  0  0  0  0  0
    2.7429   -5.0401   -6.7581 N   0  0  0  0  0  0  0  0  0  0  0  0
    1.4593   -4.6565   -6.6718 C   0  0  0  0  0  0  0  0  0  0  0  0
    1.1045   -3.2942   -6.7212 C   0  0  0  0  0  0  0  0  0  0  0  0
   -0.2597   -2.9297   -6.6259 C   0  0  0  0  0  0  0  0  0  0  0  0
   -1.2552   -3.8983   -6.4545 C   0  0  0  0  0  0  0  0  0  0  0  0
   -2.6653   -3.4978   -6.3460 C   0  0  0  0  0  0  0  0  0  0  0  0
   -3.0083   -2.3447   -6.5488 O   0  0  0  0  0  0  0  0  0  0  0  0
   -3.6627   -4.5729   -5.9734 C   0  0  0  0  0  0  0  0  0  0  0  0
   -4.8647   -4.3570   -6.0080 O   0  0  0  0  0  0  0  0  0  0  0  0
   -3.0402   -5.8647   -5.5015 C   0  0  1  0  0  0  0  0  0  0  0  0
   -1.8456   -6.2295   -6.2062 O   0  0  0  0  0  0  0  0  0  0  0  0
   -0.9165   -5.2405   -6.3845 C   0  0  0  0  0  0  0  0  0  0  0  0
    0.4329   -5.6060   -6.5195 C   0  0  0  0  0  0  0  0  0  0  0  0
    0.8972   -7.4630   -6.4583 Br  0  0  0  0  0  0  0  0  0  0  0  0
   -2.7874   -5.8386   -4.0279 C   0  0  1  0  0  0  0  0  0  0  0  0
   -1.8765   -4.8183   -3.5379 O   0  0  0  0  0  0  0  0  0  0  0  0
   -3.9154   -6.1140   -3.2074 O   0  0  0  0  0  0  0  0  0  0  0  0
   -2.9177   -7.0170   -3.1696 C   0  0  0  0  0  0  0  0  0  0  0  0
   -2.2070   -7.3541   -2.2440 O   0  0  0  0  0  0  0  0  0  0  0  0
    1.7572   -0.8870   -2.1960 C   0  0  0  0  0  0  0  0  0  0  0  0
    2.5371   -1.8258   -2.1172 O   0  0  0  0  0  0  0  0  0  0  0  0
    0.9582   -0.4029   -1.0072 C   0  0  0  0  0  0  0  0  0  0  0  0
    1.1964   -0.8310    0.1094 O   0  0  0  0  0  0  0  0  0  0  0  0
   -0.1394    0.6216   -1.2357 C   0  0  0  0  0  0  0  0  0  0  0  0
   -0.5595    1.3316   -0.3399 O   0  0  0  0  0  0  0  0  0  0  0  0
  1  2  1  0  0  0  0
  2  3  2  0  0  0  0
  3  4  1  0  0  0  0
  3 52  1  0  0  0  0
  4  5  1  0  0  0  0
  5  6  1  6  0  0  0
  5 48  1  0  0  0  0
  6  7  1  0  0  0  0
  7  8  2  0  0  0  0
  7 12  1  0  0  0  0
  8  9  1  0  0  0  0
  8 25  1  0  0  0  0
  9 10  1  0  0  0  0
 10 11  2  0  0  0  0
 10 21  1  0  0  0  0
 11 12  1  0  0  0  0
 11 13  1  0  0  0  0
 13 14  1  0  0  0  0
 13 19  1  0  0  0  0
 14 15  1  0  0  0  0
 15 16  2  0  0  0  0
 15 17  1  0  0  0  0
 17 18  1  0  0  0  0
 18 19  1  0  0  0  0
 19 20  2  0  0  0  0
 20 21  1  0  0  0  0
 20 22  1  0  0  0  0
 22 23  1  0  0  0  0
 22 24  1  0  0  0  0
 23 24  1  0  0  0  0
 25 26  2  0  0  0  0
 25 31  1  0  0  0  0
 26 27  1  0  0  0  0
 27 28  1  0  0  0  0
 27 29  2  0  0  0  0
 29 30  1  0  0  0  0
 30 31  2  0  0  0  0
 30 41  1  0  0  0  0
 31 32  1  0  0  0  0
 32 33  2  0  0  0  0
 33 34  1  0  0  0  0
 33 40  1  0  0  0  0
 34 35  2  0  0  0  0
 34 36  1  0  0  0  0
 36 37  2  0  0  0  0
 38 36  1  6  0  0  0
 38 39  1  0  0  0  0
 38 43  1  0  0  0  0
 39 40  1  0  0  0  0
 40 41  2  0  0  0  0
 41 42  1  0  0  0  0
 43 44  1  1  0  0  0
 43 45  1  0  0  0  0
 43 46  1  0  0  0  0
 45 46  1  0  0  0  0
 46 47  2  0  0  0  0
 48 49  2  0  0  0  0
 48 50  1  0  0  0  0
 50 51  2  0  0  0  0
 50 52  1  0  0  0  0
 52 53  2  0  0  0  0
M  CHG  1  27   1
M  END
$$$$