
 OpenBabel11212019563D

 54 62  0  0  1  0  0  0  0  0999 V2000
    7.3103   -2.6591    2.2814 O   0  0  0  0  0  0  0  0  0  0  0  0
    6.8950   -1.3520    2.2851 C   0  0  0  0  0  0  0  0  0  0  0  0
    5.6410   -0.9841    2.5784 C   0  0  0  0  0  0  0  0  0  0  0  0
    4.6769   -1.9405    2.8829 O   0  0  0  0  0  0  0  0  0  0  0  0
    3.4900   -1.4546    3.4963 C   0  0  2  0  0  0  0  0  0  0  0  0
    2.4459   -2.4526    3.5192 O   0  0  0  0  0  0  0  0  0  0  0  0
    2.6119   -3.6414    4.1964 C   0  0  0  0  0  0  0  0  0  0  0  0
    1.9897   -4.7695    3.7740 C   0  0  0  0  0  0  0  0  0  0  0  0
    2.1673   -5.9762    4.4531 O   0  0  0  0  0  0  0  0  0  0  0  0
    2.9550   -6.0632    5.5933 C   0  0  0  0  0  0  0  0  0  0  0  0
    3.4980   -4.9646    6.1467 C   0  0  0  0  0  0  0  0  0  0  0  0
    3.4138   -3.6196    5.4801 C   0  0  0  0  0  0  0  0  0  0  0  0
    4.2147   -5.0232    7.4701 C   0  0  3  0  0  0  0  0  0  0  0  0
    3.3887   -4.3535    8.4084 O   0  0  0  0  0  0  0  0  0  0  0  0
    3.7266   -4.4016    9.7265 C   0  0  0  0  0  0  0  0  0  0  0  0
    3.1679   -3.6929   10.5473 O   0  0  0  0  0  0  0  0  0  0  0  0
    4.7083   -5.2728   10.0623 O   0  0  0  0  0  0  0  0  0  0  0  0
    5.0534   -6.4047    9.2727 C   0  0  3  0  0  0  0  0  0  0  0  0
    4.3560   -6.4132    7.9621 C   0  0  0  0  0  0  0  0  0  0  0  0
    3.8676   -7.4868    7.3037 C   0  0  0  0  0  0  0  0  0  0  0  0
    3.1346   -7.3153    6.1405 O   0  3  0  0  0  0  0  0  0  0  0  0
    4.0295   -8.8845    7.7647 C   0  0  0  0  0  0  0  0  0  0  0  0
    3.0329   -9.5138    8.5772 O   0  0  0  0  0  0  0  0  0  0  0  0
    3.2127   -9.9302    7.2096 O   0  0  0  0  0  0  0  0  0  0  0  0
    6.4300   -6.3524    8.9622 O   0  0  0  0  0  0  0  0  0  0  0  0
    1.0766   -4.8562    2.5652 C   0  0  0  0  0  0  0  0  0  0  0  0
    0.3243   -3.7376    2.1989 C   0  0  0  0  0  0  0  0  0  0  0  0
   -0.4348   -3.7371    1.1010 N   0  3  0  0  0  0  0  0  0  0  0  0
   -1.1439   -2.6327    0.7954 F   0  0  0  0  0  0  0  0  0  0  0  0
   -0.5141   -4.7718    0.2940 N   0  0  0  0  0  0  0  0  0  0  0  0
    0.1133   -5.9157    0.5832 C   0  0  0  0  0  0  0  0  0  0  0  0
    0.8939   -6.0212    1.7568 C   0  0  0  0  0  0  0  0  0  0  0  0
    1.4296   -7.2958    2.0435 C   0  0  0  0  0  0  0  0  0  0  0  0
    1.2425   -8.4096    1.2181 C   0  0  0  0  0  0  0  0  0  0  0  0
    1.7494   -9.7031    1.6742 C   0  0  0  0  0  0  0  0  0  0  0  0
    2.1436   -9.8234    2.8288 O   0  0  0  0  0  0  0  0  0  0  0  0
    1.7555  -10.8378    0.6827 C   0  0  0  0  0  0  0  0  0  0  0  0
    2.2559  -11.9081    0.9956 O   0  0  0  0  0  0  0  0  0  0  0  0
    1.2084  -10.4961   -0.6918 C   0  0  1  0  0  0  0  0  0  0  0  0
    0.3643   -9.3441   -0.8177 O   0  0  0  0  0  0  0  0  0  0  0  0
    0.5616   -8.2914    0.0296 C   0  0  0  0  0  0  0  0  0  0  0  0
   -0.0084   -7.0372   -0.2879 C   0  0  0  0  0  0  0  0  0  0  0  0
   -0.9281   -6.8406   -1.8829 P   0  0  0  0  0  0  0  0  0  0  0  0
    2.3323  -10.3911   -1.6699 C   0  0  1  0  0  0  0  0  0  0  0  0
    3.3466   -9.3961   -1.3748 O   0  0  0  0  0  0  0  0  0  0  0  0
    2.8043  -11.6286   -2.1955 O   0  0  0  0  0  0  0  0  0  0  0  0
    2.2260  -10.7869   -3.0799 C   0  0  0  0  0  0  0  0  0  0  0  0
    2.6853  -10.2439   -4.0515 O   0  0  0  0  0  0  0  0  0  0  0  0
    2.9021   -0.3443    2.6529 C   0  0  0  0  0  0  0  0  0  0  0  0
    1.8202   -0.3749    2.0813 O   0  0  0  0  0  0  0  0  0  0  0  0
    3.8576    0.8056    2.5319 C   0  0  0  0  0  0  0  0  0  0  0  0
    3.4353    1.9467    2.5364 O   0  0  0  0  0  0  0  0  0  0  0  0
    5.3368    0.4805    2.4898 C   0  0  0  0  0  0  0  0  0  0  0  0
    6.1832    1.3516    2.4019 O   0  0  0  0  0  0  0  0  0  0  0  0
  1  2  1  0  0  0  0
  2  3  2  0  0  0  0
  3  4  1  0  0  0  0
  3 53  1  0  0  0  0
  4  5  1  0  0  0  0
  5  6  1  6  0  0  0
  5 49  1  0  0  0  0
  6  7  1  0  0  0  0
  7  8  2  0  0  0  0
  7 12  1  0  0  0  0
  8  9  1  0  0  0  0
  8 26  1  0  0  0  0
  9 10  1  0  0  0  0
 10 11  2  0  0  0  0
 10 21  1  0  0  0  0
 11 12  1  0  0  0  0
 11 13  1  0  0  0  0
 13 14  1  0  0  0  0
 13 19  1  0  0  0  0
 14 15  1  0  0  0  0
 15 16  2  0  0  0  0
 15 17  1  0  0  0  0
 17 18  1  0  0  0  0
 18 19  1  0  0  0  0
 18 25  1  0  0  0  0
 19 20  2  0  0  0  0
 20 21  1  0  0  0  0
 20 22  1  0  0  0  0
 22 23  1  0  0  0  0
 22 24  1  0  0  0  0
 23 24  1  0  0  0  0
 26 27  2  0  0  0  0
 26 32  1  0  0  0  0
 27 28  1  0  0  0  0
 28 29  1  0  0  0  0
 28 30  2  0  0  0  0
 30 31  1  0  0  0  0
 31 32  2  0  0  0  0
 31 42  1  0  0  0  0
 32 33  1  0  0  0  0
 33 34  2  0  0  0  0
 34 35  1  0  0  0  0
 34 41  1  0  0  0  0
 35 36  2  0  0  0  0
 35 37  1  0  0  0  0
 37 38  2  0  0  0  0
 39 37  1  1  0  0  0
 39 40  1  0  0  0  0
 39 44  1  0  0  0  0
 40 41  1  0  0  0  0
 41 42  2  0  0  0  0
 42 43  1  0  0  0  0
 44 45  1  1  0  0  0
 44 46  1  0  0  0  0
 44 47  1  0  0  0  0
 46 47  1  0  0  0  0
 47 48  2  0  0  0  0
 49 50  2  0  0  0  0
 49 51  1  0  0  0  0
 51 52  2  0  0  0  0
 51 53  1  0  0  0  0
 53 54  2  0  0  0  0
M  CHG  2  21   1  28   1
M  END
$$$$