
 OpenBabel11212021153D

 53 61  0  0  1  0  0  0  0  0999 V2000
   -0.3618   -3.1008   -4.5141 O   0  0  0  0  0  0  0  0  0  0  0  0
   -0.0246   -1.9670   -3.8203 C   0  0  0  0  0  0  0  0  0  0  0  0
    0.6251   -2.0101   -2.6521 C   0  0  0  0  0  0  0  0  0  0  0  0
    0.9404   -3.2289   -2.0732 O   0  0  0  0  0  0  0  0  0  0  0  0
    2.1556   -3.2191   -1.3325 C   0  0  2  0  0  0  0  0  0  0  0  0
    2.4521   -4.5166   -0.7974 O   0  0  0  0  0  0  0  0  0  0  0  0
    2.5857   -5.5582   -1.7032 C   0  0  0  0  0  0  0  0  0  0  0  0
    2.3095   -6.8206   -1.3219 C   0  0  0  0  0  0  0  0  0  0  0  0
    2.4666   -7.9234   -2.1403 O   0  0  0  0  0  0  0  0  0  0  0  0
    3.0563   -7.7517   -3.3800 C   0  0  0  0  0  0  0  0  0  0  0  0
    3.4083   -6.5420   -3.8527 C   0  0  0  0  0  0  0  0  0  0  0  0
    3.1478   -5.2854   -3.0791 C   0  0  0  0  0  0  0  0  0  0  0  0
    4.0773   -6.4171   -5.2036 C   0  0  3  0  0  0  0  0  0  0  0  0
    5.3425   -5.7878   -4.9983 O   0  0  0  0  0  0  0  0  0  0  0  0
    6.1722   -5.6949   -6.0542 C   0  0  0  0  0  0  0  0  0  0  0  0
    7.1835   -4.9117   -5.9982 N   0  0  0  0  0  0  0  0  0  0  0  0
    5.9149   -6.4173   -7.1583 O   0  0  0  0  0  0  0  0  0  0  0  0
    5.0369   -7.5555   -7.1694 C   0  0  0  0  0  0  0  0  0  0  0  0
    4.3178   -7.7246   -5.8836 C   0  0  0  0  0  0  0  0  0  0  0  0
    3.9164   -8.8971   -5.3468 C   0  0  0  0  0  0  0  0  0  0  0  0
    3.2925   -8.8833   -4.1118 N   0  0  0  0  0  0  0  0  0  0  0  0
    4.0752  -10.2196   -5.9912 C   0  0  0  0  0  0  0  0  0  0  0  0
    3.0965  -11.2610   -5.8265 O   0  0  0  0  0  0  0  0  0  0  0  0
    3.2570  -10.6130   -7.1034 O   0  0  0  0  0  0  0  0  0  0  0  0
    1.8747   -7.1408    0.0415 C   0  0  0  0  0  0  0  0  0  0  0  0
    2.8811   -7.5143    0.8638 N   0  0  0  0  0  0  0  0  0  0  0  0
    2.6079   -7.7201    2.1408 N   0  3  0  0  0  0  0  0  0  0  0  0
    3.6137   -8.0834    2.9590 F   0  0  0  0  0  0  0  0  0  0  0  0
    1.3795   -7.5700    2.6488 C   0  0  0  0  0  0  0  0  0  0  0  0
    0.3123   -7.2023    1.8337 C   0  0  0  0  0  0  0  0  0  0  0  0
    0.5452   -6.9921    0.4686 C   0  0  0  0  0  0  0  0  0  0  0  0
   -0.5544   -6.6423   -0.3549 C   0  0  0  0  0  0  0  0  0  0  0  0
   -1.8324   -6.4613    0.1932 C   0  0  0  0  0  0  0  0  0  0  0  0
   -2.9658   -6.1006   -0.6671 C   0  0  0  0  0  0  0  0  0  0  0  0
   -2.8877   -6.2005   -1.8797 O   0  0  0  0  0  0  0  0  0  0  0  0
   -4.2215   -5.6055    0.0204 C   0  0  0  0  0  0  0  0  0  0  0  0
   -5.2129   -5.3007   -0.6245 O   0  0  0  0  0  0  0  0  0  0  0  0
   -4.0931   -5.4377    1.5184 C   0  0  1  0  0  0  0  0  0  0  0  0
   -3.2484   -6.4045    2.1610 O   0  0  0  0  0  0  0  0  0  0  0  0
   -2.0433   -6.6171    1.5550 C   0  0  0  0  0  0  0  0  0  0  0  0
   -0.9761   -7.0184    2.3569 C   0  0  0  0  0  0  0  0  0  0  0  0
   -1.1688   -7.2004    3.6721 F   0  0  0  0  0  0  0  0  0  0  0  0
   -3.6521   -4.0515    1.8691 C   0  0  1  0  0  0  0  0  0  0  0  0
   -2.3777   -3.6077    1.3283 O   0  0  0  0  0  0  0  0  0  0  0  0
   -4.6794   -3.0701    1.9276 O   0  0  0  0  0  0  0  0  0  0  0  0
   -4.0755   -3.3702    3.0941 C   0  0  0  0  0  0  0  0  0  0  0  0
   -3.4125   -2.6735    3.8330 O   0  0  0  0  0  0  0  0  0  0  0  0
    1.9802   -2.2760   -0.1608 C   0  0  0  0  0  0  0  0  0  0  0  0
    2.0817   -2.5672    1.0226 O   0  0  0  0  0  0  0  0  0  0  0  0
    1.6066   -0.8886   -0.6137 C   0  0  0  0  0  0  0  0  0  0  0  0
    1.8482    0.0700    0.0996 O   0  0  0  0  0  0  0  0  0  0  0  0
    0.9615   -0.7206   -1.9780 C   0  0  0  0  0  0  0  0  0  0  0  0
    0.7760    0.3780   -2.4709 O   0  0  0  0  0  0  0  0  0  0  0  0
  1  2  1  0  0  0  0
  2  3  2  0  0  0  0
  3  4  1  0  0  0  0
  3 52  1  0  0  0  0
  4  5  1  0  0  0  0
  5  6  1  1  0  0  0
  5 48  1  0  0  0  0
  6  7  1  0  0  0  0
  7  8  2  0  0  0  0
  7 12  1  0  0  0  0
  8  9  1  0  0  0  0
  8 25  1  0  0  0  0
  9 10  1  0  0  0  0
 10 11  2  0  0  0  0
 10 21  1  0  0  0  0
 11 12  1  0  0  0  0
 11 13  1  0  0  0  0
 13 14  1  0  0  0  0
 13 19  1  0  0  0  0
 14 15  1  0  0  0  0
 15 16  2  0  0  0  0
 15 17  1  0  0  0  0
 17 18  1  0  0  0  0
 18 19  1  0  0  0  0
 19 20  2  0  0  0  0
 20 21  1  0  0  0  0
 20 22  1  0  0  0  0
 22 23  1  0  0  0  0
 22 24  1  0  0  0  0
 23 24  1  0  0  0  0
 25 26  2  0  0  0  0
 25 31  1  0  0  0  0
 26 27  1  0  0  0  0
 27 28  1  0  0  0  0
 27 29  2  0  0  0  0
 29 30  1  0  0  0  0
 30 31  2  0  0  0  0
 30 41  1  0  0  0  0
 31 32  1  0  0  0  0
 32 33  2  0  0  0  0
 33 34  1  0  0  0  0
 33 40  1  0  0  0  0
 34 35  2  0  0  0  0
 34 36  1  0  0  0  0
 36 37  2  0  0  0  0
 38 36  1  6  0  0  0
 38 39  1  0  0  0  0
 38 43  1  0  0  0  0
 39 40  1  0  0  0  0
 40 41  2  0  0  0  0
 41 42  1  0  0  0  0
 43 44  1  6  0  0  0
 43 45  1  0  0  0  0
 43 46  1  0  0  0  0
 45 46  1  0  0  0  0
 46 47  2  0  0  0  0
 48 49  2  0  0  0  0
 48 50  1  0  0  0  0
 50 51  2  0  0  0  0
 50 52  1  0  0  0  0
 52 53  2  0  0  0  0
M  CHG  1  27   1
M  END
$$$$