
 OpenBabel11222002033D

 54 62  0  0  1  0  0  0  0  0999 V2000
    7.3885    0.3668    5.5031 O   0  0  0  0  0  0  0  0  0  0  0  0
    7.1123    1.4295    4.6839 C   0  0  0  0  0  0  0  0  0  0  0  0
    5.9440    1.5624    4.0434 C   0  0  0  0  0  0  0  0  0  0  0  0
    4.9728    0.5799    4.1283 O   0  0  0  0  0  0  0  0  0  0  0  0
    3.6166    1.0285    4.1098 C   0  0  2  0  0  0  0  0  0  0  0  0
    2.6958   -0.0734    4.2218 O   0  0  0  0  0  0  0  0  0  0  0  0
    2.7587   -0.7848    5.4210 C   0  0  0  0  0  0  0  0  0  0  0  0
    2.4496   -2.1017    5.5051 C   0  0  0  0  0  0  0  0  0  0  0  0
    2.5266   -2.8132    6.7101 O   0  0  0  0  0  0  0  0  0  0  0  0
    2.8368   -2.1390    7.8902 C   0  0  0  0  0  0  0  0  0  0  0  0
    3.0340   -0.8117    7.9220 C   0  0  0  0  0  0  0  0  0  0  0  0
    3.1098   -0.0122    6.6713 C   0  0  0  0  0  0  0  0  0  0  0  0
    3.3347   -0.1047    9.2127 C   0  0  3  0  0  0  0  0  0  0  0  0
    2.2359    0.7567    9.5621 N   0  0  0  0  0  0  0  0  0  0  0  0
    2.1680    1.3811   10.7603 C   0  0  0  0  0  0  0  0  0  0  0  0
    1.3860    2.3000   10.9672 O   0  0  0  0  0  0  0  0  0  0  0  0
    2.9988    0.9245   11.7264 N   0  0  0  0  0  0  0  0  0  0  0  0
    3.8503   -0.2178   11.6167 C   0  0  3  0  0  0  0  0  0  0  0  0
    3.5345   -1.0052   10.3928 C   0  0  0  0  0  0  0  0  0  0  0  0
    3.3710   -2.3462   10.2801 C   0  0  0  0  0  0  0  0  0  0  0  0
    2.9706   -2.8703    9.0482 N   0  0  0  0  0  0  0  0  0  0  0  0
    3.5870   -3.3284   11.3763 C   0  0  0  0  0  0  0  0  0  0  0  0
    2.8716   -4.5742   11.4354 O   0  0  0  0  0  0  0  0  0  0  0  0
    4.2840   -4.5666   11.1499 O   0  0  0  0  0  0  0  0  0  0  0  0
    5.1609    0.2879   11.5333 O   0  0  0  0  0  0  0  0  0  0  0  0
    1.9185   -2.9038    4.3702 C   0  0  0  0  0  0  0  0  0  0  0  0
    0.5254   -2.9120    4.1859 C   0  0  0  0  0  0  0  0  0  0  0  0
   -0.0004   -3.6146    3.1239 C   0  0  0  0  0  0  0  0  0  0  0  0
   -1.3294   -3.6479    2.9560 F   0  0  0  0  0  0  0  0  0  0  0  0
    0.7440   -4.2866    2.2377 N   0  0  0  0  0  0  0  0  0  0  0  0
    2.0778   -4.2957    2.4236 C   0  0  0  0  0  0  0  0  0  0  0  0
    2.7409   -3.6493    3.5012 C   0  0  0  0  0  0  0  0  0  0  0  0
    4.0819   -3.7708    3.6737 N   0  0  0  0  0  0  0  0  0  0  0  0
    4.7853   -4.5055    2.7700 C   0  0  0  0  0  0  0  0  0  0  0  0
    6.2241   -4.7039    3.0239 C   0  0  0  0  0  0  0  0  0  0  0  0
    6.8371   -4.2068    3.9549 O   0  0  0  0  0  0  0  0  0  0  0  0
    6.9407   -5.5935    2.0350 C   0  0  0  0  0  0  0  0  0  0  0  0
    7.9197   -6.2464    2.3692 O   0  0  0  0  0  0  0  0  0  0  0  0
    6.3415   -5.6004    0.6564 C   0  0  1  0  0  0  0  0  0  0  0  0
    4.9233   -5.7834    0.6867 O   0  0  0  0  0  0  0  0  0  0  0  0
    4.2344   -5.0962    1.6497 C   0  0  0  0  0  0  0  0  0  0  0  0
    2.8496   -5.0191    1.5029 C   0  0  0  0  0  0  0  0  0  0  0  0
    2.2523   -5.4942    0.3010 N   0  0  0  0  0  0  0  0  0  0  0  0
    6.7084   -4.3865   -0.1623 C   0  0  1  0  0  0  0  0  0  0  0  0
    6.3167   -3.1006    0.3818 O   0  0  0  0  0  0  0  0  0  0  0  0
    7.9755   -4.3961   -0.7867 O   0  0  0  0  0  0  0  0  0  0  0  0
    6.8960   -4.5154   -1.6012 C   0  0  0  0  0  0  0  0  0  0  0  0
    6.6221   -5.3677   -2.4043 O   0  0  0  0  0  0  0  0  0  0  0  0
    3.3640    1.8374    2.8511 C   0  0  0  0  0  0  0  0  0  0  0  0
    2.4967    1.6629    2.0117 O   0  0  0  0  0  0  0  0  0  0  0  0
    4.3239    2.9908    2.7550 C   0  0  0  0  0  0  0  0  0  0  0  0
    3.9236    4.0993    2.4369 O   0  0  0  0  0  0  0  0  0  0  0  0
    5.7509    2.7814    3.2085 C   0  0  0  0  0  0  0  0  0  0  0  0
    6.6375    3.5707    2.9271 O   0  0  0  0  0  0  0  0  0  0  0  0
  1  2  1  0  0  0  0
  2  3  2  0  0  0  0
  3  4  1  0  0  0  0
  3 53  1  0  0  0  0
  4  5  1  0  0  0  0
  5  6  1  6  0  0  0
  5 49  1  0  0  0  0
  6  7  1  0  0  0  0
  7  8  2  0  0  0  0
  7 12  1  0  0  0  0
  8  9  1  0  0  0  0
  8 26  1  0  0  0  0
  9 10  1  0  0  0  0
 10 11  2  0  0  0  0
 10 21  1  0  0  0  0
 11 12  1  0  0  0  0
 11 13  1  0  0  0  0
 13 14  1  0  0  0  0
 13 19  1  0  0  0  0
 14 15  1  0  0  0  0
 15 16  2  0  0  0  0
 15 17  1  0  0  0  0
 17 18  1  0  0  0  0
 18 19  1  0  0  0  0
 18 25  1  0  0  0  0
 19 20  2  0  0  0  0
 20 21  1  0  0  0  0
 20 22  1  0  0  0  0
 22 23  1  0  0  0  0
 22 24  1  0  0  0  0
 23 24  1  0  0  0  0
 26 27  2  0  0  0  0
 26 32  1  0  0  0  0
 27 28  1  0  0  0  0
 28 29  1  0  0  0  0
 28 30  2  0  0  0  0
 30 31  1  0  0  0  0
 31 32  2  0  0  0  0
 31 42  1  0  0  0  0
 32 33  1  0  0  0  0
 33 34  2  0  0  0  0
 34 35  1  0  0  0  0
 34 41  1  0  0  0  0
 35 36  2  0  0  0  0
 35 37  1  0  0  0  0
 37 38  2  0  0  0  0
 39 37  1  1  0  0  0
 39 40  1  0  0  0  0
 39 44  1  0  0  0  0
 40 41  1  0  0  0  0
 41 42  2  0  0  0  0
 42 43  1  0  0  0  0
 44 45  1  1  0  0  0
 44 46  1  0  0  0  0
 44 47  1  0  0  0  0
 46 47  1  0  0  0  0
 47 48  2  0  0  0  0
 49 50  2  0  0  0  0
 49 51  1  0  0  0  0
 51 52  2  0  0  0  0
 51 53  1  0  0  0  0
 53 54  2  0  0  0  0
M  END
$$$$