
 OpenBabel11222020283D

 53 61  0  0  1  0  0  0  0  0999 V2000
   -1.9896   -2.0003    5.6977 O   0  0  0  0  0  0  0  0  0  0  0  0
   -1.9305   -1.7962    4.3426 C   0  0  0  0  0  0  0  0  0  0  0  0
   -0.9624   -1.0765    3.7643 C   0  0  0  0  0  0  0  0  0  0  0  0
    0.0258   -0.4783    4.5292 O   0  0  0  0  0  0  0  0  0  0  0  0
    1.3096   -0.5337    3.9174 C   0  0  2  0  0  0  0  0  0  0  0  0
    2.3440   -0.0857    4.8037 O   0  0  0  0  0  0  0  0  0  0  0  0
    2.5627   -0.7772    5.9897 C   0  0  0  0  0  0  0  0  0  0  0  0
    3.5279   -0.3867    6.8576 C   0  0  0  0  0  0  0  0  0  0  0  0
    3.7720   -1.0827    8.0450 O   0  0  0  0  0  0  0  0  0  0  0  0
    3.2108   -2.3362    8.2419 C   0  0  0  0  0  0  0  0  0  0  0  0
    2.2346   -2.7775    7.4410 C   0  0  0  0  0  0  0  0  0  0  0  0
    1.7236   -1.9971    6.2903 C   0  0  0  0  0  0  0  0  0  0  0  0
    1.6679   -4.1255    7.6839 C   0  0  0  0  0  0  0  0  0  0  0  0
    0.7151   -4.5719    6.9362 N   0  0  0  0  0  0  0  0  0  0  0  0
    0.2132   -5.8342    7.1767 C   0  0  0  0  0  0  0  0  0  0  0  0
   -0.7278   -6.2113    6.4909 O   0  0  0  0  0  0  0  0  0  0  0  0
    0.7247   -6.6830    8.1380 N   0  0  0  0  0  0  0  0  0  0  0  0
    1.6735   -6.2591    8.9003 C   0  0  0  0  0  0  0  0  0  0  0  0
    2.2536   -4.9219    8.7782 C   0  0  0  0  0  0  0  0  0  0  0  0
    3.2481   -4.4027    9.5261 C   0  0  0  0  0  0  0  0  0  0  0  0
    3.7009   -3.1127    9.2622 N   0  0  0  0  0  0  0  0  0  0  0  0
    3.9231   -5.1236   10.6288 C   0  0  0  0  0  0  0  0  0  0  0  0
    4.4349   -4.4372   11.7828 O   0  0  0  0  0  0  0  0  0  0  0  0
    3.2919   -5.3065   11.9045 O   0  0  0  0  0  0  0  0  0  0  0  0
    4.4120    0.7990    6.6422 C   0  0  0  0  0  0  0  0  0  0  0  0
    3.9076    1.8844    5.9272 C   0  0  0  0  0  0  0  0  0  0  0  0
    4.6529    2.9548    5.6606 N   0  3  0  0  0  0  0  0  0  0  0  0
    4.1196    3.9495    4.9263 F   0  0  0  0  0  0  0  0  0  0  0  0
    5.8877    3.0814    6.0934 N   0  0  0  0  0  0  0  0  0  0  0  0
    6.4250    2.1127    6.8394 C   0  0  0  0  0  0  0  0  0  0  0  0
    5.7358    0.9214    7.1434 C   0  0  0  0  0  0  0  0  0  0  0  0
    6.4192   -0.0453    7.9317 C   0  0  0  0  0  0  0  0  0  0  0  0
    7.6834    0.2034    8.4752 C   0  0  0  0  0  0  0  0  0  0  0  0
    8.2975   -0.7651    9.3878 C   0  0  0  0  0  0  0  0  0  0  0  0
    7.7920   -1.8583    9.5854 O   0  0  0  0  0  0  0  0  0  0  0  0
    9.5483   -0.3220   10.1097 C   0  0  0  0  0  0  0  0  0  0  0  0
   10.1984   -1.1106   10.7809 O   0  0  0  0  0  0  0  0  0  0  0  0
    9.8295    1.1621   10.0373 C   0  0  1  0  0  0  0  0  0  0  0  0
    9.5134    1.7608    8.7704 O   0  0  0  0  0  0  0  0  0  0  0  0
    8.3283    1.3909    8.2036 C   0  0  0  0  0  0  0  0  0  0  0  0
    7.7083    2.3042    7.3500 C   0  0  0  0  0  0  0  0  0  0  0  0
    8.3476    3.4496    7.0613 F   0  0  0  0  0  0  0  0  0  0  0  0
    9.2253    1.8923   11.2356 C   0  0  1  0  0  0  0  0  0  0  0  0
    9.6530    1.5388   12.6094 N   0  0  0  0  0  0  0  0  0  0  0  0
    9.0688    3.3083   11.0469 O   0  0  0  0  0  0  0  0  0  0  0  0
    7.9451    2.5964   11.1715 C   0  0  0  0  0  0  0  0  0  0  0  0
    6.9760    2.4742   10.4374 O   0  0  0  0  0  0  0  0  0  0  0  0
    1.2446    0.3859    2.7175 C   0  0  0  0  0  0  0  0  0  0  0  0
    1.9433    1.3733    2.5347 O   0  0  0  0  0  0  0  0  0  0  0  0
    0.1733   -0.0613    1.7495 C   0  0  0  0  0  0  0  0  0  0  0  0
    0.2808    0.2012    0.5642 O   0  0  0  0  0  0  0  0  0  0  0  0
   -0.9755   -0.9096    2.2803 C   0  0  0  0  0  0  0  0  0  0  0  0
   -1.7911   -1.4283    1.5397 O   0  0  0  0  0  0  0  0  0  0  0  0
  1  2  1  0  0  0  0
  2  3  2  0  0  0  0
  3  4  1  0  0  0  0
  3 52  1  0  0  0  0
  4  5  1  0  0  0  0
  5  6  1  1  0  0  0
  5 48  1  0  0  0  0
  6  7  1  0  0  0  0
  7  8  2  0  0  0  0
  7 12  1  0  0  0  0
  8  9  1  0  0  0  0
  8 25  1  0  0  0  0
  9 10  1  0  0  0  0
 10 11  2  0  0  0  0
 10 21  1  0  0  0  0
 11 12  1  0  0  0  0
 11 13  1  0  0  0  0
 13 14  2  0  0  0  0
 13 19  1  0  0  0  0
 14 15  1  0  0  0  0
 15 16  2  0  0  0  0
 15 17  1  0  0  0  0
 17 18  2  0  0  0  0
 18 19  1  0  0  0  0
 19 20  2  0  0  0  0
 20 21  1  0  0  0  0
 20 22  1  0  0  0  0
 22 23  1  0  0  0  0
 22 24  1  0  0  0  0
 23 24  1  0  0  0  0
 25 26  2  0  0  0  0
 25 31  1  0  0  0  0
 26 27  1  0  0  0  0
 27 28  1  0  0  0  0
 27 29  2  0  0  0  0
 29 30  1  0  0  0  0
 30 31  2  0  0  0  0
 30 41  1  0  0  0  0
 31 32  1  0  0  0  0
 32 33  2  0  0  0  0
 33 34  1  0  0  0  0
 33 40  1  0  0  0  0
 34 35  2  0  0  0  0
 34 36  1  0  0  0  0
 36 37  2  0  0  0  0
 38 36  1  6  0  0  0
 38 39  1  0  0  0  0
 38 43  1  0  0  0  0
 39 40  1  0  0  0  0
 40 41  2  0  0  0  0
 41 42  1  0  0  0  0
 43 44  1  1  0  0  0
 43 45  1  0  0  0  0
 43 46  1  0  0  0  0
 45 46  1  0  0  0  0
 46 47  2  0  0  0  0
 48 49  2  0  0  0  0
 48 50  1  0  0  0  0
 50 51  2  0  0  0  0
 50 52  1  0  0  0  0
 52 53  2  0  0  0  0
M  CHG  1  27   1
M  END
$$$$