
 OpenBabel11232002213D

 53 62  0  0  1  0  0  0  0  0999 V2000
    7.6001   -0.7469  -19.4785 O   0  0  0  0  0  0  0  0  0  0  0  0
    6.7385   -1.8114  -19.4373 C   0  0  0  0  0  0  0  0  0  0  0  0
    6.0213   -2.1203  -18.3499 C   0  0  0  0  0  0  0  0  0  0  0  0
    6.0925   -1.3482  -17.1950 O   0  0  0  0  0  0  0  0  0  0  0  0
    4.8752   -1.3332  -16.4479 C   0  0  2  0  0  0  0  0  0  0  0  0
    4.8932   -0.3626  -15.3765 O   0  0  0  0  0  0  0  0  0  0  0  0
    4.5019    0.9320  -15.7248 C   0  0  0  0  0  0  0  0  0  0  0  0
    3.9518    1.7831  -14.8231 C   0  0  0  0  0  0  0  0  0  0  0  0
    3.4282    3.0260  -15.1941 O   0  0  0  0  0  0  0  0  0  0  0  0
    3.5410    3.4612  -16.5110 C   0  0  0  0  0  0  0  0  0  0  0  0
    4.1654    2.7344  -17.4504 C   0  0  0  0  0  0  0  0  0  0  0  0
    4.7107    1.3797  -17.1636 C   0  0  0  0  0  0  0  0  0  0  0  0
    4.3955    3.2942  -18.8328 C   0  0  3  0  0  0  0  0  0  0  0  0
    3.8703    2.3610  -19.8260 N   0  0  0  0  0  0  0  0  0  0  0  0
    4.0347    2.7238  -21.1231 C   0  0  0  0  0  0  0  0  0  0  0  0
    4.4104    1.9126  -22.0416 N   0  0  0  0  0  0  0  0  0  0  0  0
    3.7150    4.0036  -21.4011 N   0  0  0  0  0  0  0  0  0  0  0  0
    3.9730    5.0949  -20.4907 C   0  0  0  0  0  0  0  0  0  0  0  0
    3.7448    4.6303  -19.0829 C   0  0  0  0  0  0  0  0  0  0  0  0
    3.0673    5.2715  -18.1008 C   0  0  0  0  0  0  0  0  0  0  0  0
    3.0053    4.6819  -16.8372 N   0  0  0  0  0  0  0  0  0  0  0  0
    2.3814    6.5847  -18.2451 C   0  0  0  0  0  0  0  0  0  0  0  0
    1.2216    6.9159  -17.4601 O   0  0  0  0  0  0  0  0  0  0  0  0
    2.4698    7.5977  -17.2292 O   0  0  0  0  0  0  0  0  0  0  0  0
    3.7297    1.4874  -13.3832 C   0  0  0  0  0  0  0  0  0  0  0  0
    2.5292    0.8787  -13.0388 C   0  0  0  0  0  0  0  0  0  0  0  0
    2.2261    0.6298  -11.7605 N   0  3  0  0  0  0  0  0  0  0  0  0
    1.0276    0.0924  -11.4635 F   0  0  0  0  0  0  0  0  0  0  0  0
    3.0428    0.9110  -10.7644 N   0  0  0  0  0  0  0  0  0  0  0  0
    4.2072    1.5124  -11.0130 C   0  0  0  0  0  0  0  0  0  0  0  0
    4.6012    1.8572  -12.3253 C   0  0  0  0  0  0  0  0  0  0  0  0
    5.8185    2.5662  -12.4811 C   0  0  0  0  0  0  0  0  0  0  0  0
    6.6263    2.8835  -11.3728 C   0  0  0  0  0  0  0  0  0  0  0  0
    7.8874    3.6190  -11.5495 C   0  0  0  0  0  0  0  0  0  0  0  0
    8.1652    4.1779  -12.6114 O   0  0  0  0  0  0  0  0  0  0  0  0
    8.8078    3.6731  -10.3574 C   0  0  0  0  0  0  0  0  0  0  0  0
   10.0086    3.5008  -10.3897 O   0  0  0  0  0  0  0  0  0  0  0  0
    7.9963    3.8125   -9.1472 C   0  0  2  0  0  0  0  0  0  0  0  0
    6.9710    2.8045   -8.9580 O   0  0  0  0  0  0  0  0  0  0  0  0
    6.2411    2.5178  -10.0883 C   0  0  0  0  0  0  0  0  0  0  0  0
    5.0382    1.8324   -9.9334 C   0  0  0  0  0  0  0  0  0  0  0  0
    4.6447    1.4894   -8.6951 F   0  0  0  0  0  0  0  0  0  0  0  0
    7.5367    5.2175   -8.9251 O   0  0  0  0  0  0  0  0  0  0  0  0
    8.4365    4.6049   -8.0481 C   0  0  1  0  0  0  0  0  0  0  0  0
    8.1599    4.5759   -6.6885 O   0  0  0  0  0  0  0  0  0  0  0  0
    9.4349    5.1773   -7.1977 C   0  0  3  0  0  0  0  0  0  0  0  0
    9.5474    6.6134   -6.9552 N   0  0  0  0  0  0  0  0  0  0  0  0
    4.6235   -2.7359  -15.9335 C   0  0  0  0  0  0  0  0  0  0  0  0
    4.3947   -3.0436  -14.7744 O   0  0  0  0  0  0  0  0  0  0  0  0
    4.5620   -3.7307  -17.0744 C   0  0  0  0  0  0  0  0  0  0  0  0
    3.9851   -4.7948  -16.9302 O   0  0  0  0  0  0  0  0  0  0  0  0
    5.1436   -3.3259  -18.4198 C   0  0  0  0  0  0  0  0  0  0  0  0
    4.8527   -3.9055  -19.4507 O   0  0  0  0  0  0  0  0  0  0  0  0
  1  2  1  0  0  0  0
  2  3  2  0  0  0  0
  3  4  1  0  0  0  0
  3 52  1  0  0  0  0
  4  5  1  0  0  0  0
  5  6  1  1  0  0  0
  5 48  1  0  0  0  0
  6  7  1  0  0  0  0
  7  8  2  0  0  0  0
  7 12  1  0  0  0  0
  8  9  1  0  0  0  0
  8 25  1  0  0  0  0
  9 10  1  0  0  0  0
 10 11  2  0  0  0  0
 10 21  1  0  0  0  0
 11 12  1  0  0  0  0
 11 13  1  0  0  0  0
 13 14  1  0  0  0  0
 13 19  1  0  0  0  0
 14 15  1  0  0  0  0
 15 16  2  0  0  0  0
 15 17  1  0  0  0  0
 17 18  1  0  0  0  0
 18 19  1  0  0  0  0
 19 20  2  0  0  0  0
 20 21  1  0  0  0  0
 20 22  1  0  0  0  0
 22 23  1  0  0  0  0
 22 24  1  0  0  0  0
 23 24  1  0  0  0  0
 25 26  2  0  0  0  0
 25 31  1  0  0  0  0
 26 27  1  0  0  0  0
 27 28  1  0  0  0  0
 27 29  2  0  0  0  0
 29 30  1  0  0  0  0
 30 31  2  0  0  0  0
 30 41  1  0  0  0  0
 31 32  1  0  0  0  0
 32 33  2  0  0  0  0
 33 34  1  0  0  0  0
 33 40  1  0  0  0  0
 34 35  2  0  0  0  0
 34 36  1  0  0  0  0
 36 37  2  0  0  0  0
 38 36  1  6  0  0  0
 38 39  1  0  0  0  0
 38 43  1  0  0  0  0
 38 44  1  0  0  0  0
 39 40  1  0  0  0  0
 40 41  2  0  0  0  0
 41 42  1  0  0  0  0
 44 43  1  6  0  0  0
 44 45  1  0  0  0  0
 44 46  1  0  0  0  0
 45 46  1  0  0  0  0
 46 47  1  0  0  0  0
 48 49  2  0  0  0  0
 48 50  1  0  0  0  0
 50 51  2  0  0  0  0
 50 52  1  0  0  0  0
 52 53  2  0  0  0  0
M  CHG  1  27   1
M  END
$$$$