
 OpenBabel11272020183D

 54 62  0  0  1  0  0  0  0  0999 V2000
   -1.6353    5.0621   -3.5912 O   0  0  0  0  0  0  0  0  0  0  0  0
   -1.6847    3.9150   -2.8387 C   0  0  0  0  0  0  0  0  0  0  0  0
   -0.6012    3.3209   -2.3190 C   0  0  0  0  0  0  0  0  0  0  0  0
    0.6705    3.8040   -2.5597 O   0  0  0  0  0  0  0  0  0  0  0  0
    1.6889    3.4456   -1.6169 C   0  0  2  0  0  0  0  0  0  0  0  0
    2.9656    4.0309   -1.9774 O   0  0  0  0  0  0  0  0  0  0  0  0
    3.0929    5.4181   -1.9048 C   0  0  0  0  0  0  0  0  0  0  0  0
    4.2851    6.0278   -1.7047 C   0  0  0  0  0  0  0  0  0  0  0  0
    4.4295    7.4224   -1.6407 O   0  0  0  0  0  0  0  0  0  0  0  0
    3.3128    8.2447   -1.7748 C   0  0  0  0  0  0  0  0  0  0  0  0
    2.0941    7.7253   -1.9956 C   0  0  0  0  0  0  0  0  0  0  0  0
    1.8593    6.2532   -2.1047 C   0  0  0  0  0  0  0  0  0  0  0  0
    0.8723    8.5775   -2.1452 C   0  0  3  0  0  0  0  0  0  0  0  0
   -0.0091    8.2620   -1.0911 O   0  0  0  0  0  0  0  0  0  0  0  0
   -1.1332    9.0211   -0.9625 C   0  0  0  0  0  0  0  0  0  0  0  0
   -2.0598    8.6538   -0.2479 O   0  0  0  0  0  0  0  0  0  0  0  0
   -1.1757   10.1834   -1.6574 O   0  0  0  0  0  0  0  0  0  0  0  0
   -0.0633   10.7425   -2.1641 C   0  0  0  0  0  0  0  0  0  0  0  0
   -0.0802   11.7802   -2.8159 O   0  0  0  0  0  0  0  0  0  0  0  0
    1.1742   10.0099   -1.9973 C   0  0  0  0  0  0  0  0  0  0  0  0
    2.4218   10.5001   -1.7630 C   0  0  0  0  0  0  0  0  0  0  0  0
    3.4964    9.6078   -1.6635 O   0  3  0  0  0  0  0  0  0  0  0  0
    2.7824   11.9184   -1.5446 C   0  0  0  0  0  0  0  0  0  0  0  0
    3.1433   12.6898   -2.7243 N   0  0  0  0  0  0  0  0  0  0  0  0
    2.0340   13.0918   -1.9190 N   0  0  0  0  0  0  0  0  0  0  0  0
    5.5537    5.3008   -1.4712 C   0  0  0  0  0  0  0  0  0  0  0  0
    5.7887    5.0458   -0.1623 N   0  0  0  0  0  0  0  0  0  0  0  0
    6.9443    4.4212    0.1448 C   0  0  0  0  0  0  0  0  0  0  0  0
    7.1822    4.1706    1.4392 F   0  0  0  0  0  0  0  0  0  0  0  0
    7.9063    4.0665   -0.7792 C   0  0  0  0  0  0  0  0  0  0  0  0
    7.6891    4.3715   -2.1255 C   0  0  0  0  0  0  0  0  0  0  0  0
    6.4821    5.0048   -2.5025 C   0  0  0  0  0  0  0  0  0  0  0  0
    6.3103    5.3238   -3.8688 C   0  0  0  0  0  0  0  0  0  0  0  0
    7.3093    5.0403   -4.8177 C   0  0  0  0  0  0  0  0  0  0  0  0
    7.1326    5.4823   -6.2044 C   0  0  0  0  0  0  0  0  0  0  0  0
    6.1558    6.1415   -6.5300 O   0  0  0  0  0  0  0  0  0  0  0  0
    8.2469    5.1695   -7.1755 C   0  0  0  0  0  0  0  0  0  0  0  0
    8.3143    5.7530   -8.2486 O   0  0  0  0  0  0  0  0  0  0  0  0
    9.2191    4.1145   -6.6979 C   0  0  1  0  0  0  0  0  0  0  0  0
    9.5217    4.1446   -5.2983 O   0  0  0  0  0  0  0  0  0  0  0  0
    8.4881    4.4136   -4.4465 C   0  0  0  0  0  0  0  0  0  0  0  0
    8.6632    4.0819   -3.1024 C   0  0  0  0  0  0  0  0  0  0  0  0
    9.8099    3.4906   -2.7267 F   0  0  0  0  0  0  0  0  0  0  0  0
    8.7678    2.7387   -7.0939 C   0  0  1  0  0  0  0  0  0  0  0  0
    7.4913    2.3089   -6.5842 O   0  0  0  0  0  0  0  0  0  0  0  0
    9.0573    2.3694   -8.4437 O   0  0  0  0  0  0  0  0  0  0  0  0
    9.7559    1.6407   -7.4309 C   0  0  3  0  0  0  0  0  0  0  0  0
    9.2810    0.2976   -7.2363 O   0  0  0  0  0  0  0  0  0  0  0  0
    1.7827    1.9260   -1.5429 C   0  0  0  0  0  0  0  0  0  0  0  0
    2.8032    1.2613   -1.6321 O   0  0  0  0  0  0  0  0  0  0  0  0
    0.4384    1.2727   -1.3035 C   0  0  0  0  0  0  0  0  0  0  0  0
    0.3681    0.1205   -0.9081 O   0  0  0  0  0  0  0  0  0  0  0  0
   -0.8240    2.0689   -1.5488 C   0  0  0  0  0  0  0  0  0  0  0  0
   -1.9115    1.7120   -1.1282 O   0  0  0  0  0  0  0  0  0  0  0  0
  1  2  1  0  0  0  0
  2  3  2  0  0  0  0
  3  4  1  0  0  0  0
  3 53  1  0  0  0  0
  4  5  1  0  0  0  0
  5  6  1  6  0  0  0
  5 49  1  0  0  0  0
  6  7  1  0  0  0  0
  7  8  2  0  0  0  0
  7 12  1  0  0  0  0
  8  9  1  0  0  0  0
  8 26  1  0  0  0  0
  9 10  1  0  0  0  0
 10 11  2  0  0  0  0
 10 22  1  0  0  0  0
 11 12  1  0  0  0  0
 11 13  1  0  0  0  0
 13 14  1  0  0  0  0
 13 20  1  0  0  0  0
 14 15  1  0  0  0  0
 15 16  2  0  0  0  0
 15 17  1  0  0  0  0
 17 18  1  0  0  0  0
 18 19  2  0  0  0  0
 18 20  1  0  0  0  0
 20 21  2  0  0  0  0
 21 22  1  0  0  0  0
 21 23  1  0  0  0  0
 23 24  1  0  0  0  0
 23 25  1  0  0  0  0
 24 25  1  0  0  0  0
 26 27  2  0  0  0  0
 26 32  1  0  0  0  0
 27 28  1  0  0  0  0
 28 29  1  0  0  0  0
 28 30  2  0  0  0  0
 30 31  1  0  0  0  0
 31 32  2  0  0  0  0
 31 42  1  0  0  0  0
 32 33  1  0  0  0  0
 33 34  2  0  0  0  0
 34 35  1  0  0  0  0
 34 41  1  0  0  0  0
 35 36  2  0  0  0  0
 35 37  1  0  0  0  0
 37 38  2  0  0  0  0
 39 37  1  1  0  0  0
 39 40  1  0  0  0  0
 39 44  1  0  0  0  0
 40 41  1  0  0  0  0
 41 42  2  0  0  0  0
 42 43  1  0  0  0  0
 44 45  1  1  0  0  0
 44 46  1  0  0  0  0
 44 47  1  0  0  0  0
 46 47  1  0  0  0  0
 47 48  1  0  0  0  0
 49 50  2  0  0  0  0
 49 51  1  0  0  0  0
 51 52  2  0  0  0  0
 51 53  1  0  0  0  0
 53 54  2  0  0  0  0
M  CHG  1  22   1
M  END
$$$$