
 OpenBabel11232001563D

 52 60  0  0  1  0  0  0  0  0999 V2000
    2.3909    3.4991   -5.7049 O   0  0  0  0  0  0  0  0  0  0  0  0
    2.5556    3.3575   -4.3488 C   0  0  0  0  0  0  0  0  0  0  0  0
    2.0990    2.3018   -3.6611 C   0  0  0  0  0  0  0  0  0  0  0  0
    1.3643    1.3026   -4.2710 O   0  0  0  0  0  0  0  0  0  0  0  0
    1.8273   -0.0142   -3.9478 C   0  0  2  0  0  0  0  0  0  0  0  0
    1.2474   -1.0232   -4.8089 O   0  0  0  0  0  0  0  0  0  0  0  0
    1.6064   -0.9516   -6.1570 C   0  0  0  0  0  0  0  0  0  0  0  0
    1.6048   -2.0351   -6.9639 C   0  0  0  0  0  0  0  0  0  0  0  0
    1.9327   -1.9782   -8.3201 O   0  0  0  0  0  0  0  0  0  0  0  0
    2.2939   -0.7575   -8.8859 C   0  0  0  0  0  0  0  0  0  0  0  0
    2.3344    0.3738   -8.1655 C   0  0  0  0  0  0  0  0  0  0  0  0
    1.9749    0.3920   -6.7279 C   0  0  0  0  0  0  0  0  0  0  0  0
    2.6738    1.6967   -8.8007 C   0  0  3  0  0  0  0  0  0  0  0  0
    3.8274    2.2678   -8.1576 N   0  0  0  0  0  0  0  0  0  0  0  0
    4.4690    3.3469   -8.6622 C   0  0  0  0  0  0  0  0  0  0  0  0
    5.1665    4.0552   -7.9465 O   0  0  0  0  0  0  0  0  0  0  0  0
    4.3051    3.5874   -9.9836 N   0  0  0  0  0  0  0  0  0  0  0  0
    3.3168    2.9579  -10.8236 C   0  0  0  0  0  0  0  0  0  0  0  0
    2.9823    1.6138  -10.2666 C   0  0  0  0  0  0  0  0  0  0  0  0
    2.9463    0.4316  -10.9245 C   0  0  0  0  0  0  0  0  0  0  0  0
    2.5923   -0.7204  -10.2244 N   0  0  0  0  0  0  0  0  0  0  0  0
    3.2428    0.2604  -12.3673 C   0  0  0  0  0  0  0  0  0  0  0  0
    3.1327   -1.0175  -13.0206 O   0  0  0  0  0  0  0  0  0  0  0  0
    2.1940    0.0332  -13.3219 O   0  0  0  0  0  0  0  0  0  0  0  0
    1.2535   -3.3864   -6.4961 C   0  0  0  0  0  0  0  0  0  0  0  0
   -0.0792   -3.7708   -6.5369 C   0  0  0  0  0  0  0  0  0  0  0  0
   -0.4510   -4.9813   -6.1088 N   0  3  0  0  0  0  0  0  0  0  0  0
   -1.7540   -5.3184   -6.1522 F   0  0  0  0  0  0  0  0  0  0  0  0
    0.4078   -5.8705   -5.6394 N   0  0  0  0  0  0  0  0  0  0  0  0
    1.7057   -5.5631   -5.5856 C   0  0  0  0  0  0  0  0  0  0  0  0
    2.1949   -4.3136   -6.0099 C   0  0  0  0  0  0  0  0  0  0  0  0
    3.5833   -4.0646   -5.9253 C   0  0  0  0  0  0  0  0  0  0  0  0
    4.4586   -5.0415   -5.4357 C   0  0  0  0  0  0  0  0  0  0  0  0
    3.9753   -6.2751   -5.0275 C   0  0  0  0  0  0  0  0  0  0  0  0
    2.5999   -6.5140   -5.0956 C   0  0  0  0  0  0  0  0  0  0  0  0
    4.7374   -7.2989   -4.5366 O   0  0  0  0  0  0  0  0  0  0  0  0
    6.1567   -7.2213   -4.7280 C   0  0  2  0  0  0  0  0  0  0  0  0
    6.7402   -5.8236   -4.6968 C   0  0  0  0  0  0  0  0  0  0  0  0
    7.9038   -5.4866   -4.2340 N   0  0  0  0  0  0  0  0  0  0  0  0
    5.8866   -4.7599   -5.3170 C   0  0  0  0  0  0  0  0  0  0  0  0
    6.4193   -3.6436   -5.7064 N   0  0  0  0  0  0  0  0  0  0  0  0
    6.5473   -7.9147   -5.9976 C   0  0  1  0  0  0  0  0  0  0  0  0
    5.9794   -7.3895   -7.2230 O   0  0  0  0  0  0  0  0  0  0  0  0
    7.9318   -8.2700   -6.0579 O   0  0  0  0  0  0  0  0  0  0  0  0
    7.0478   -9.2898   -6.0741 C   0  0  0  0  0  0  0  0  0  0  0  0
    6.8685  -10.1368   -6.9127 O   0  0  0  0  0  0  0  0  0  0  0  0
    1.4583   -0.2335   -2.4926 C   0  0  0  0  0  0  0  0  0  0  0  0
    0.8300   -1.1854   -2.0525 O   0  0  0  0  0  0  0  0  0  0  0  0
    1.9857    0.8706   -1.5940 C   0  0  0  0  0  0  0  0  0  0  0  0
    2.1543    0.6547   -0.4047 O   0  0  0  0  0  0  0  0  0  0  0  0
    2.3724    2.2129   -2.2011 C   0  0  0  0  0  0  0  0  0  0  0  0
    2.8951    3.1000   -1.5505 O   0  0  0  0  0  0  0  0  0  0  0  0
  1  2  1  0  0  0  0
  2  3  2  0  0  0  0
  3  4  1  0  0  0  0
  3 51  1  0  0  0  0
  4  5  1  0  0  0  0
  5  6  1  6  0  0  0
  5 47  1  0  0  0  0
  6  7  1  0  0  0  0
  7  8  2  0  0  0  0
  7 12  1  0  0  0  0
  8  9  1  0  0  0  0
  8 25  1  0  0  0  0
  9 10  1  0  0  0  0
 10 11  2  0  0  0  0
 10 21  1  0  0  0  0
 11 12  1  0  0  0  0
 11 13  1  0  0  0  0
 13 14  1  0  0  0  0
 13 19  1  0  0  0  0
 14 15  1  0  0  0  0
 15 16  2  0  0  0  0
 15 17  1  0  0  0  0
 17 18  1  0  0  0  0
 18 19  1  0  0  0  0
 19 20  2  0  0  0  0
 20 21  1  0  0  0  0
 20 22  1  0  0  0  0
 22 23  1  0  0  0  0
 22 24  1  0  0  0  0
 23 24  1  0  0  0  0
 25 26  2  0  0  0  0
 25 31  1  0  0  0  0
 26 27  1  0  0  0  0
 27 28  1  0  0  0  0
 27 29  2  0  0  0  0
 29 30  1  0  0  0  0
 30 31  2  0  0  0  0
 30 35  1  0  0  0  0
 31 32  1  0  0  0  0
 32 33  2  0  0  0  0
 33 34  1  0  0  0  0
 33 40  1  0  0  0  0
 34 35  2  0  0  0  0
 34 36  1  0  0  0  0
 37 36  1  6  0  0  0
 37 38  1  0  0  0  0
 37 42  1  0  0  0  0
 38 39  2  0  0  0  0
 38 40  1  0  0  0  0
 40 41  2  0  0  0  0
 42 43  1  6  0  0  0
 42 44  1  0  0  0  0
 42 45  1  0  0  0  0
 44 45  1  0  0  0  0
 45 46  2  0  0  0  0
 47 48  2  0  0  0  0
 47 49  1  0  0  0  0
 49 50  2  0  0  0  0
 49 51  1  0  0  0  0
 51 52  2  0  0  0  0
M  CHG  1  27   1
M  END
$$$$