
 OpenBabel11222000413D

 55 63  0  0  1  0  0  0  0  0999 V2000
    0.3950    6.1877    5.0088 O   0  0  0  0  0  0  0  0  0  0  0  0
   -0.0949    5.9587    3.7474 C   0  0  0  0  0  0  0  0  0  0  0  0
    0.4087    5.0287    2.9282 C   0  0  0  0  0  0  0  0  0  0  0  0
    1.5099    4.2601    3.2717 O   0  0  0  0  0  0  0  0  0  0  0  0
    1.2010    2.8697    3.2291 C   0  0  2  0  0  0  0  0  0  0  0  0
    2.2833    2.0362    3.7386 O   0  0  0  0  0  0  0  0  0  0  0  0
    2.6269    2.1541    5.0870 C   0  0  0  0  0  0  0  0  0  0  0  0
    3.1492    1.1206    5.8044 C   0  0  0  0  0  0  0  0  0  0  0  0
    3.5576    1.3063    7.1454 O   0  0  0  0  0  0  0  0  0  0  0  0
    3.4977    2.5704    7.7538 C   0  0  0  0  0  0  0  0  0  0  0  0
    2.9569    3.6163    7.1117 C   0  0  0  0  0  0  0  0  0  0  0  0
    2.4583    3.5184    5.7134 C   0  0  0  0  0  0  0  0  0  0  0  0
    2.8166    4.9755    7.7367 C   0  0  3  0  0  0  0  0  0  0  0  0
    1.4293    5.2347    7.8500 O   0  0  0  0  0  0  0  0  0  0  0  0
    1.0702    6.4360    8.3705 C   0  0  0  0  0  0  0  0  0  0  0  0
   -0.0306    6.9168    8.1507 O   0  0  0  0  0  0  0  0  0  0  0  0
    2.0023    7.0445    9.1410 O   0  0  0  0  0  0  0  0  0  0  0  0
    3.1360    6.3715    9.6832 C   0  0  3  0  0  0  0  0  0  0  0  0
    3.3453    5.0105    9.1144 C   0  0  0  0  0  0  0  0  0  0  0  0
    3.9114    3.9351    9.7083 C   0  0  0  0  0  0  0  0  0  0  0  0
    3.9960    2.7170    9.0334 O   0  3  0  0  0  0  0  0  0  0  0  0
    4.4570    3.9384   11.0881 C   0  0  0  0  0  0  0  0  0  0  0  0
    3.8990    3.0717   12.0860 O   0  0  0  0  0  0  0  0  0  0  0  0
    5.2181    2.8160   11.5691 O   0  0  0  0  0  0  0  0  0  0  0  0
    4.2994    7.0924    9.3301 O   0  0  0  0  0  0  0  0  0  0  0  0
    3.3064   -0.3009    5.2830 C   0  0  0  0  0  0  0  0  0  0  0  0
    2.4025   -0.7538    4.3187 C   0  0  0  0  0  0  0  0  0  0  0  0
    2.4891   -1.9755    3.7901 N   0  3  0  0  0  0  0  0  0  0  0  0
    1.6531   -2.3192    2.7909 F   0  0  0  0  0  0  0  0  0  0  0  0
    3.3508   -2.8687    4.2136 N   0  0  0  0  0  0  0  0  0  0  0  0
    4.2410   -2.5657    5.1572 C   0  0  0  0  0  0  0  0  0  0  0  0
    4.2847   -1.2561    5.7135 C   0  0  0  0  0  0  0  0  0  0  0  0
    5.3240   -0.9966    6.6382 C   0  0  0  0  0  0  0  0  0  0  0  0
    6.2745   -1.9714    6.9778 C   0  0  0  0  0  0  0  0  0  0  0  0
    7.3981   -1.6205    7.8448 C   0  0  0  0  0  0  0  0  0  0  0  0
    7.3135   -0.6604    8.5950 O   0  0  0  0  0  0  0  0  0  0  0  0
    8.6706   -2.4199    7.6493 C   0  0  0  0  0  0  0  0  0  0  0  0
    9.7494   -1.9387    7.9684 O   0  0  0  0  0  0  0  0  0  0  0  0
    8.5181   -3.6993    6.8507 C   0  0  1  0  0  0  0  0  0  0  0  0
    7.1651   -4.1839    6.7440 O   0  0  0  0  0  0  0  0  0  0  0  0
    6.2110   -3.2471    6.4551 C   0  0  0  0  0  0  0  0  0  0  0  0
    5.1626   -3.5544    5.5772 C   0  0  0  0  0  0  0  0  0  0  0  0
    5.0233   -4.9201    5.0026 C   0  0  0  0  0  0  0  0  0  0  0  0
    5.7875   -5.9320    5.2416 N   0  0  0  0  0  0  0  0  0  0  0  0
    9.2176   -3.5704    5.5110 C   0  0  1  0  0  0  0  0  0  0  0  0
   10.6425   -3.3453    5.5481 O   0  0  0  0  0  0  0  0  0  0  0  0
    8.7649   -4.4850    4.5011 O   0  0  0  0  0  0  0  0  0  0  0  0
    8.5607   -3.1853    4.2716 C   0  0  0  0  0  0  0  0  0  0  0  0
    7.5453   -2.5359    4.0732 O   0  0  0  0  0  0  0  0  0  0  0  0
    0.8618    2.4306    1.8029 C   0  0  0  0  0  0  0  0  0  0  0  0
    0.8938    1.2670    1.4216 O   0  0  0  0  0  0  0  0  0  0  0  0
    0.3806    3.5768    0.9256 C   0  0  0  0  0  0  0  0  0  0  0  0
    0.5804    3.5741   -0.2746 O   0  0  0  0  0  0  0  0  0  0  0  0
   -0.2541    4.7652    1.6238 C   0  0  0  0  0  0  0  0  0  0  0  0
   -1.2452    5.3320    1.2097 O   0  0  0  0  0  0  0  0  0  0  0  0
  1  2  1  0  0  0  0
  2  3  2  0  0  0  0
  3  4  1  0  0  0  0
  3 54  1  0  0  0  0
  4  5  1  0  0  0  0
  5  6  1  6  0  0  0
  5 50  1  0  0  0  0
  6  7  1  0  0  0  0
  7  8  2  0  0  0  0
  7 12  1  0  0  0  0
  8  9  1  0  0  0  0
  8 26  1  0  0  0  0
  9 10  1  0  0  0  0
 10 11  2  0  0  0  0
 10 21  1  0  0  0  0
 11 12  1  0  0  0  0
 11 13  1  0  0  0  0
 13 14  1  0  0  0  0
 13 19  1  0  0  0  0
 14 15  1  0  0  0  0
 15 16  2  0  0  0  0
 15 17  1  0  0  0  0
 17 18  1  0  0  0  0
 18 19  1  0  0  0  0
 18 25  1  0  0  0  0
 19 20  2  0  0  0  0
 20 21  1  0  0  0  0
 20 22  1  0  0  0  0
 22 23  1  0  0  0  0
 22 24  1  0  0  0  0
 23 24  1  0  0  0  0
 26 27  2  0  0  0  0
 26 32  1  0  0  0  0
 27 28  1  0  0  0  0
 28 29  1  0  0  0  0
 28 30  2  0  0  0  0
 30 31  1  0  0  0  0
 31 32  2  0  0  0  0
 31 42  1  0  0  0  0
 32 33  1  0  0  0  0
 33 34  2  0  0  0  0
 34 35  1  0  0  0  0
 34 41  1  0  0  0  0
 35 36  2  0  0  0  0
 35 37  1  0  0  0  0
 37 38  2  0  0  0  0
 39 37  1  6  0  0  0
 39 40  1  0  0  0  0
 39 45  1  0  0  0  0
 40 41  1  0  0  0  0
 41 42  2  0  0  0  0
 42 43  1  0  0  0  0
 43 44  2  0  0  0  0
 45 46  1  1  0  0  0
 45 47  1  0  0  0  0
 45 48  1  0  0  0  0
 47 48  1  0  0  0  0
 48 49  2  0  0  0  0
 50 51  2  0  0  0  0
 50 52  1  0  0  0  0
 52 53  2  0  0  0  0
 52 54  1  0  0  0  0
 54 55  2  0  0  0  0
M  CHG  2  21   1  28   1
M  END
$$$$