
 OpenBabel11252023553D

 54 62  0  0  1  0  0  0  0  0999 V2000
    1.5637    6.6224    3.0944 O   0  0  0  0  0  0  0  0  0  0  0  0
    2.8058    6.3660    2.5690 C   0  0  0  0  0  0  0  0  0  0  0  0
    3.3810    5.1591    2.6440 C   0  0  0  0  0  0  0  0  0  0  0  0
    2.7122    4.1261    3.2692 O   0  0  0  0  0  0  0  0  0  0  0  0
    3.0773    2.8092    2.9018 C   0  0  2  0  0  0  0  0  0  0  0  0
    2.4056    1.8127    3.7374 O   0  0  0  0  0  0  0  0  0  0  0  0
    2.6550    1.8147    5.1076 C   0  0  0  0  0  0  0  0  0  0  0  0
    2.6082    0.6800    5.8399 C   0  0  0  0  0  0  0  0  0  0  0  0
    2.9232    0.6503    7.2132 O   0  0  0  0  0  0  0  0  0  0  0  0
    3.1706    1.8481    7.9024 C   0  0  0  0  0  0  0  0  0  0  0  0
    3.0924    3.0300    7.2648 C   0  0  0  0  0  0  0  0  0  0  0  0
    2.9016    3.1352    5.7864 C   0  0  0  0  0  0  0  0  0  0  0  0
    3.2278    4.3468    7.9779 C   0  0  3  0  0  0  0  0  0  0  0  0
    1.9965    5.0297    7.8483 O   0  0  0  0  0  0  0  0  0  0  0  0
    1.8913    6.1855    8.5377 C   0  0  0  0  0  0  0  0  0  0  0  0
    0.9759    7.0178    8.2223 N   0  0  0  0  0  0  0  0  0  0  0  0
    2.7462    6.4285    9.5550 O   0  0  0  0  0  0  0  0  0  0  0  0
    3.4954    5.4494   10.0969 C   0  0  0  0  0  0  0  0  0  0  0  0
    4.1842    5.5934   11.0948 O   0  0  0  0  0  0  0  0  0  0  0  0
    3.4572    4.1574    9.4138 C   0  0  0  0  0  0  0  0  0  0  0  0
    3.6127    2.9555   10.0080 C   0  0  0  0  0  0  0  0  0  0  0  0
    3.4789    1.7911    9.2515 O   0  3  0  0  0  0  0  0  0  0  0  0
    3.9271    2.7537   11.4466 C   0  0  0  0  0  0  0  0  0  0  0  0
    4.0753    1.4199   11.9702 O   0  0  0  0  0  0  0  0  0  0  0  0
    5.2217    2.2813   11.8452 O   0  0  0  0  0  0  0  0  0  0  0  0
    2.2445   -0.6523    5.2777 C   0  0  0  0  0  0  0  0  0  0  0  0
    3.2625   -1.4506    4.7691 C   0  0  0  0  0  0  0  0  0  0  0  0
    2.9543   -2.7456    4.4551 C   0  0  0  0  0  0  0  0  0  0  0  0
    3.9151   -3.5401    3.9754 F   0  0  0  0  0  0  0  0  0  0  0  0
    1.7479   -3.2807    4.6495 N   0  0  0  0  0  0  0  0  0  0  0  0
    0.7616   -2.4881    5.0966 C   0  0  0  0  0  0  0  0  0  0  0  0
    0.9589   -1.1397    5.3718 N   0  3  0  0  0  0  0  0  0  0  0  0
   -0.1136   -0.3647    5.6980 C   0  0  0  0  0  0  0  0  0  0  0  0
   -1.3901   -0.9047    5.8393 C   0  0  0  0  0  0  0  0  0  0  0  0
   -2.5080   -0.0415    6.1950 C   0  0  0  0  0  0  0  0  0  0  0  0
   -2.3095    1.1271    6.4718 O   0  0  0  0  0  0  0  0  0  0  0  0
   -3.8676   -0.6973    6.2023 C   0  0  0  0  0  0  0  0  0  0  0  0
   -4.8442   -0.0867    5.8058 O   0  0  0  0  0  0  0  0  0  0  0  0
   -3.8237   -2.1406    6.6503 C   0  0  1  0  0  0  0  0  0  0  0  0
   -2.7965   -2.8766    5.9377 O   0  0  0  0  0  0  0  0  0  0  0  0
   -1.6039   -2.2545    5.6888 C   0  0  0  0  0  0  0  0  0  0  0  0
   -0.5188   -3.0306    5.3034 C   0  0  0  0  0  0  0  0  0  0  0  0
   -0.7021   -4.3510    5.1460 F   0  0  0  0  0  0  0  0  0  0  0  0
   -3.6890   -2.2480    8.1516 C   0  0  1  0  0  0  0  0  0  0  0  0
   -4.7019   -1.6044    8.9393 O   0  0  0  0  0  0  0  0  0  0  0  0
   -3.2270   -3.5053    8.6602 O   0  0  0  0  0  0  0  0  0  0  0  0
   -2.4003   -2.4570    8.8160 C   0  0  0  0  0  0  0  0  0  0  0  0
   -1.2689   -2.2460    8.4457 O   0  0  0  0  0  0  0  0  0  0  0  0
    4.5947    2.6049    2.8742 C   0  0  0  0  0  0  0  0  0  0  0  0
    5.1247    1.6452    3.4430 O   0  0  0  0  0  0  0  0  0  0  0  0
    5.3602    3.6155    2.0549 C   0  0  3  0  0  0  0  0  0  0  0  0
    4.7674    5.0052    2.0938 C   0  0  0  0  0  0  0  0  0  0  0  0
    5.3841    5.9838    1.6764 O   0  0  0  0  0  0  0  0  0  0  0  0
    6.6734    3.6352    2.4347 F   0  0  0  0  0  0  0  0  0  0  0  0
  1  2  1  0  0  0  0
  2  3  2  0  0  0  0
  3  4  1  0  0  0  0
  3 52  1  0  0  0  0
  4  5  1  0  0  0  0
  5  6  1  1  0  0  0
  5 49  1  0  0  0  0
  6  7  1  0  0  0  0
  7  8  2  0  0  0  0
  7 12  1  0  0  0  0
  8  9  1  0  0  0  0
  8 26  1  0  0  0  0
  9 10  1  0  0  0  0
 10 11  2  0  0  0  0
 10 22  1  0  0  0  0
 11 12  1  0  0  0  0
 11 13  1  0  0  0  0
 13 14  1  0  0  0  0
 13 20  1  0  0  0  0
 14 15  1  0  0  0  0
 15 16  2  0  0  0  0
 15 17  1  0  0  0  0
 17 18  1  0  0  0  0
 18 19  2  0  0  0  0
 18 20  1  0  0  0  0
 20 21  2  0  0  0  0
 21 22  1  0  0  0  0
 21 23  1  0  0  0  0
 23 24  1  0  0  0  0
 23 25  1  0  0  0  0
 24 25  1  0  0  0  0
 26 27  2  0  0  0  0
 26 32  1  0  0  0  0
 27 28  1  0  0  0  0
 28 29  1  0  0  0  0
 28 30  2  0  0  0  0
 30 31  1  0  0  0  0
 31 32  2  0  0  0  0
 31 42  1  0  0  0  0
 32 33  1  0  0  0  0
 33 34  2  0  0  0  0
 34 35  1  0  0  0  0
 34 41  1  0  0  0  0
 35 36  2  0  0  0  0
 35 37  1  0  0  0  0
 37 38  2  0  0  0  0
 39 37  1  1  0  0  0
 39 40  1  0  0  0  0
 39 44  1  0  0  0  0
 40 41  1  0  0  0  0
 41 42  2  0  0  0  0
 42 43  1  0  0  0  0
 44 45  1  1  0  0  0
 44 46  1  0  0  0  0
 44 47  1  0  0  0  0
 46 47  1  0  0  0  0
 47 48  2  0  0  0  0
 49 50  2  0  0  0  0
 49 51  1  0  0  0  0
 51 52  1  0  0  0  0
 51 54  1  0  0  0  0
 52 53  2  0  0  0  0
M  CHG  2  22   1  32   1
M  END
$$$$