
 OpenBabel11262000003D

 54 62  0  0  1  0  0  0  0  0999 V2000
    4.8760   -9.0491    2.4321 O   0  0  0  0  0  0  0  0  0  0  0  0
    5.1356   -7.9944    3.2699 C   0  0  0  0  0  0  0  0  0  0  0  0
    5.0344   -6.7113    2.8970 C   0  0  0  0  0  0  0  0  0  0  0  0
    4.7614   -6.3442    1.5983 O   0  0  0  0  0  0  0  0  0  0  0  0
    3.8150   -5.2931    1.4347 C   0  0  2  0  0  0  0  0  0  0  0  0
    3.7194   -4.8885    0.0353 O   0  0  0  0  0  0  0  0  0  0  0  0
    3.6229   -5.8915   -0.9204 C   0  0  0  0  0  0  0  0  0  0  0  0
    4.1115   -5.7291   -2.1710 C   0  0  0  0  0  0  0  0  0  0  0  0
    4.1060   -6.7350   -3.1372 O   0  0  0  0  0  0  0  0  0  0  0  0
    3.6735   -8.0001   -2.7855 C   0  0  0  0  0  0  0  0  0  0  0  0
    3.0740   -8.2419   -1.5746 C   0  0  0  0  0  0  0  0  0  0  0  0
    2.9123   -7.1703   -0.5550 C   0  0  0  0  0  0  0  0  0  0  0  0
    2.6600   -9.5423   -1.3287 C   0  0  0  0  0  0  0  0  0  0  0  0
    2.0782   -9.8197   -0.0857 O   0  0  0  0  0  0  0  0  0  0  0  0
    1.3047  -10.9630    0.1141 C   0  0  0  0  0  0  0  0  0  0  0  0
    0.6243  -11.0902    1.1225 O   0  0  0  0  0  0  0  0  0  0  0  0
    1.3115  -11.8631   -0.8980 O   0  0  0  0  0  0  0  0  0  0  0  0
    2.4283  -11.9246   -1.7885 C   0  0  3  0  0  0  0  0  0  0  0  0
    2.8608  -10.5680   -2.2297 C   0  0  0  0  0  0  0  0  0  0  0  0
    3.5229  -10.2663   -3.4242 C   0  0  0  0  0  0  0  0  0  0  0  0
    3.9082   -8.9747   -3.6902 N   0  0  0  0  0  0  0  0  0  0  0  0
    3.8990  -11.3386   -4.4273 C   0  0  0  0  0  0  0  0  0  0  0  0
    2.9418  -11.6738   -5.4409 O   0  0  0  0  0  0  0  0  0  0  0  0
    4.1289  -10.9317   -5.7865 O   0  0  0  0  0  0  0  0  0  0  0  0
    3.5016  -12.6279   -1.1805 O   0  0  0  0  0  0  0  0  0  0  0  0
    4.7021   -4.4677   -2.6773 C   0  0  0  0  0  0  0  0  0  0  0  0
    6.0277   -4.3567   -2.5040 N   0  0  0  0  0  0  0  0  0  0  0  0
    6.6311   -3.3038   -3.0221 N   0  3  0  0  0  0  0  0  0  0  0  0
    7.9625   -3.1846   -2.8504 F   0  0  0  0  0  0  0  0  0  0  0  0
    6.0111   -2.3652   -3.7085 N   0  0  0  0  0  0  0  0  0  0  0  0
    4.6946   -2.4485   -3.8933 C   0  0  0  0  0  0  0  0  0  0  0  0
    3.9574   -3.5088   -3.3753 C   0  0  0  0  0  0  0  0  0  0  0  0
    2.5585   -3.5402   -3.5975 C   0  0  0  0  0  0  0  0  0  0  0  0
    1.9130   -2.5229   -4.3220 C   0  0  0  0  0  0  0  0  0  0  0  0
    0.4663   -2.5792   -4.5041 C   0  0  0  0  0  0  0  0  0  0  0  0
   -0.1712   -3.5463   -4.1194 O   0  0  0  0  0  0  0  0  0  0  0  0
   -0.2101   -1.4053   -5.1576 C   0  0  0  0  0  0  0  0  0  0  0  0
   -1.4326   -1.3329   -5.1843 O   0  0  0  0  0  0  0  0  0  0  0  0
    0.6995   -0.4035   -5.8375 C   0  0  1  0  0  0  0  0  0  0  0  0
    2.1050   -0.4405   -5.5640 O   0  0  0  0  0  0  0  0  0  0  0  0
    2.6332   -1.4711   -4.8475 C   0  0  0  0  0  0  0  0  0  0  0  0
    4.0181   -1.4590   -4.6248 C   0  0  0  0  0  0  0  0  0  0  0  0
    4.7404   -0.4442   -5.1299 F   0  0  0  0  0  0  0  0  0  0  0  0
    0.4090   -0.4266   -7.3222 C   0  0  1  0  0  0  0  0  0  0  0  0
   -0.9307   -0.0865   -7.7402 O   0  0  0  0  0  0  0  0  0  0  0  0
    1.4518    0.0532   -8.1795 O   0  0  0  0  0  0  0  0  0  0  0  0
    1.1850   -1.2680   -8.2276 C   0  0  0  0  0  0  0  0  0  0  0  0
    1.8751   -2.2271   -7.9829 O   0  0  0  0  0  0  0  0  0  0  0  0
    4.2020   -4.0389    2.2053 C   0  0  0  0  0  0  0  0  0  0  0  0
    4.0633   -2.8935    1.7939 O   0  0  0  0  0  0  0  0  0  0  0  0
    4.8002   -4.3057    3.5669 C   0  0  0  0  0  0  0  0  0  0  0  0
    4.8359   -3.4091    4.3954 O   0  0  0  0  0  0  0  0  0  0  0  0
    5.3447   -5.6736    3.9090 C   0  0  0  0  0  0  0  0  0  0  0  0
    5.9922   -5.8819    4.9202 O   0  0  0  0  0  0  0  0  0  0  0  0
  1  2  1  0  0  0  0
  2  3  2  0  0  0  0
  3  4  1  0  0  0  0
  3 53  1  0  0  0  0
  4  5  1  0  0  0  0
  5  6  1  6  0  0  0
  5 49  1  0  0  0  0
  6  7  1  0  0  0  0
  7  8  2  0  0  0  0
  7 12  1  0  0  0  0
  8  9  1  0  0  0  0
  8 26  1  0  0  0  0
  9 10  1  0  0  0  0
 10 11  2  0  0  0  0
 10 21  1  0  0  0  0
 11 12  1  0  0  0  0
 11 13  1  0  0  0  0
 13 14  1  0  0  0  0
 13 19  2  0  0  0  0
 14 15  1  0  0  0  0
 15 16  2  0  0  0  0
 15 17  1  0  0  0  0
 17 18  1  0  0  0  0
 18 19  1  0  0  0  0
 18 25  1  0  0  0  0
 19 20  1  0  0  0  0
 20 21  2  0  0  0  0
 20 22  1  0  0  0  0
 22 23  1  0  0  0  0
 22 24  1  0  0  0  0
 23 24  1  0  0  0  0
 26 27  2  0  0  0  0
 26 32  1  0  0  0  0
 27 28  1  0  0  0  0
 28 29  1  0  0  0  0
 28 30  2  0  0  0  0
 30 31  1  0  0  0  0
 31 32  2  0  0  0  0
 31 42  1  0  0  0  0
 32 33  1  0  0  0  0
 33 34  2  0  0  0  0
 34 35  1  0  0  0  0
 34 41  1  0  0  0  0
 35 36  2  0  0  0  0
 35 37  1  0  0  0  0
 37 38  2  0  0  0  0
 39 37  1  1  0  0  0
 39 40  1  0  0  0  0
 39 44  1  0  0  0  0
 40 41  1  0  0  0  0
 41 42  2  0  0  0  0
 42 43  1  0  0  0  0
 44 45  1  6  0  0  0
 44 46  1  0  0  0  0
 44 47  1  0  0  0  0
 46 47  1  0  0  0  0
 47 48  2  0  0  0  0
 49 50  2  0  0  0  0
 49 51  1  0  0  0  0
 51 52  2  0  0  0  0
 51 53  1  0  0  0  0
 53 54  2  0  0  0  0
M  CHG  1  28   1
M  END
$$$$