
 OpenBabel10252015243D

 93108  0  0  1  0  0  0  0  0999 V2000
    1.4173    3.5354    1.8545 F   0  0  0  0  0  0  0  0  0  0  0  0
    2.2559    2.8660    1.0141 C   0  0  3  0  0  0  0  0  0  0  0  0
    2.3695    1.4062    1.4885 C   0  0  0  0  0  0  0  0  0  0  0  0
    3.8218    0.8922    1.4039 C   0  0  3  0  0  0  0  0  0  0  0  0
    3.9029   -0.6129    1.6576 C   0  0  0  0  0  0  0  0  0  0  0  0
    4.3917   -0.9446    3.0540 C   0  0  0  0  0  0  0  0  0  0  0  0
    5.6847   -0.2009    3.3923 C   0  0  3  0  0  0  0  0  0  0  0  0
    5.5331    1.3074    3.3198 C   0  0  0  0  0  0  0  0  0  0  0  0
    4.6652    1.7956    2.3080 C   0  0  0  0  0  0  0  0  0  0  0  0
    4.4751    3.1816    2.1199 C   0  0  0  0  0  0  0  0  0  0  0  0
    3.6115    3.5946    0.9478 C   0  0  3  0  0  0  0  0  0  0  0  0
    3.5066    5.1045    0.6132 C   0  0  3  0  0  0  0  0  0  0  0  0
    4.6041    5.9345    1.3270 C   0  0  0  0  0  0  0  0  0  0  0  0
    4.7848    5.5545    2.8025 C   0  0  0  0  0  0  0  0  0  0  0  0
    5.1004    4.0937    2.9536 C   0  0  0  0  0  0  0  0  0  0  0  0
    5.9431    3.6118    3.9736 C   0  0  0  0  0  0  0  0  0  0  0  0
    6.1985    2.2285    4.1975 C   0  0  0  0  0  0  0  0  0  0  0  0
    7.0730    1.8306    5.3681 C   0  0  0  0  0  0  0  0  0  0  0  0
    7.9215    0.7104    5.3387 C   0  0  0  0  0  0  0  0  0  0  0  0
    8.5552    0.1725    6.4853 C   0  0  0  0  0  0  0  0  0  0  0  0
    9.0524   -1.2702    6.4270 C   0  0  3  0  0  0  0  0  0  0  0  0
    7.8016   -2.1761    6.3745 C   0  0  0  0  0  0  0  0  0  0  0  0
    8.1371   -3.6539    6.3472 C   0  0  0  0  0  0  0  0  0  0  0  0
    8.9765   -4.0568    7.5592 C   0  0  3  0  0  0  0  0  0  0  0  0
   10.2705   -3.2072    7.6088 C   0  0  3  0  0  0  0  0  0  0  0  0
    9.9928   -1.6687    7.5924 C   0  0  3  0  0  0  0  0  0  0  0  0
    9.4587   -1.1077    8.9253 C   0  0  0  0  0  0  0  0  0  0  0  0
    9.3095    0.4272    8.8939 C   0  0  3  0  0  0  0  0  0  0  0  0
    8.5437    0.8990    7.6767 C   0  0  0  0  0  0  0  0  0  0  0  0
    7.8144    2.0933    7.7092 C   0  0  0  0  0  0  0  0  0  0  0  0
    7.0661    2.5163    6.5976 C   0  0  0  0  0  0  0  0  0  0  0  0
    6.3123    3.6150    6.7650 F   0  0  0  0  0  0  0  0  0  0  0  0
   10.6760    1.1248    8.9607 C   0  0  0  0  0  0  0  0  0  0  0  0
   11.1737   -3.6165    8.7783 C   0  0  0  0  0  0  0  0  0  0  0  0
    9.2434   -5.5645    7.4866 C   0  0  0  0  0  0  0  0  0  0  0  0
    3.4806    5.3907   -0.9560 C   0  0  3  0  0  0  0  0  0  0  0  0
    3.3680    6.8372   -1.0991 O   0  0  0  0  0  0  0  0  0  0  0  0
    3.6741    7.4097   -2.2929 C   0  0  0  0  0  0  0  0  0  0  0  0
    4.5180    6.8122   -3.1953 C   0  0  0  0  0  0  0  0  0  0  0  0
    5.0067    5.4197   -3.0480 C   0  0  3  0  0  0  0  0  0  0  0  0
    4.6510    4.6981   -1.7501 C   0  0  3  0  0  0  0  0  0  0  0  0
    4.2572    3.3452   -2.1147 O   0  0  0  0  0  0  0  0  0  0  0  0
    5.1961    2.3821   -2.3917 C   0  0  0  0  0  0  0  0  0  0  0  0
    6.5420    2.5564   -2.5612 C   0  0  0  0  0  0  0  0  0  0  0  0
    7.4981    1.3974   -2.7041 C   0  0  0  0  0  0  0  0  0  0  0  0
    6.8935   -0.0021   -2.5037 C   0  0  0  0  0  0  0  0  0  0  0  0
    5.3980   -0.0432   -2.6250 C   0  0  0  0  0  0  0  0  0  0  0  0
    4.6408    1.0613   -2.5547 C   0  0  0  0  0  0  0  0  0  0  0  0
    4.4510    4.7933   -4.2184 O   0  0  0  0  0  0  0  0  0  0  0  0
    4.8825    7.4864   -4.3705 C   0  0  0  0  0  0  0  0  0  0  0  0
    4.3879    8.7431   -4.7221 C   0  0  0  0  0  0  0  0  0  0  0  0
    3.4205    9.3258   -3.8801 C   0  0  0  0  0  0  0  0  0  0  0  0
    3.1429    8.6660   -2.6309 C   0  0  0  0  0  0  0  0  0  0  0  0
    2.3181    9.2679   -1.7586 F   0  0  0  0  0  0  0  0  0  0  0  0
    2.8233   10.5066   -4.3828 C   0  0  0  0  0  0  0  0  0  0  0  0
    1.6607   11.4409   -3.4985 Cl  0  0  0  0  0  0  0  0  0  0  0  0
    3.1271   11.0156   -5.6734 C   0  0  0  0  0  0  0  0  0  0  0  0
    4.1567   10.4990   -6.4801 C   0  0  0  0  0  0  0  0  0  0  0  0
    4.8295    9.3951   -5.9093 C   0  0  0  0  0  0  0  0  0  0  0  0
    6.3638    8.8976   -6.5873 Cl  0  0  0  0  0  0  0  0  0  0  0  0
    4.4863   11.1154   -7.8328 C   0  0  0  0  0  0  0  0  0  0  0  0
    4.2867   12.5119   -8.0571 C   0  0  0  0  0  0  0  0  0  0  0  0
    4.4009   13.1742   -9.3581 C   0  0  0  0  0  0  0  0  0  0  0  0
    3.9936   14.5713   -9.8728 C   0  0  0  0  0  0  0  0  0  0  0  0
    4.2106   14.9000  -11.2193 C   0  0  0  0  0  0  0  0  0  0  0  0
    3.5415   15.9754  -11.8534 N   0  0  0  0  0  0  0  0  0  0  0  0
    4.9153   13.9772  -11.9757 C   0  0  0  0  0  0  0  0  0  0  0  0
    5.3172   12.7867  -11.5279 N   0  0  0  0  0  0  0  0  0  0  0  0
    5.0211   12.3359  -10.3125 N   0  3  0  0  0  0  0  0  0  0  0  0
    5.3187   11.0207  -10.0739 N   0  3  0  0  0  0  0  0  0  0  0  0
    4.9418   10.3765   -8.9456 C   0  0  0  0  0  0  0  0  0  0  0  0
    4.9135    9.0139   -9.0057 O   0  0  0  0  0  0  0  0  0  0  0  0
    6.1335   10.0992  -11.2869 Cl  0  0  0  0  0  0  0  0  0  0  0  0
    3.2290   15.7149   -9.0288 N   0  3  0  0  0  0  0  0  0  0  0  0
    3.4190   17.1166   -9.2141 N   0  3  0  0  0  0  0  0  0  0  0  0
    4.8175   17.7628  -10.0025 Cl  0  0  0  0  0  0  0  0  0  0  0  0
    2.6267   18.0699   -8.5730 C   0  0  0  0  0  0  0  0  0  0  0  0
    1.6943   17.7721   -7.5381 C   0  0  0  0  0  0  0  0  0  0  0  0
    1.5620   16.4143   -7.2711 C   0  0  0  0  0  0  0  0  0  0  0  0
    2.2364   15.3899   -8.1136 C   0  0  0  0  0  0  0  0  0  0  0  0
    1.7355   14.0751   -8.1176 N   0  0  0  0  0  0  0  0  0  0  0  0
    0.8013   16.0902   -6.2187 N   0  0  0  0  0  0  0  0  0  0  0  0
    0.1997   16.9579   -5.3618 N   0  3  0  0  0  0  0  0  0  0  0  0
    0.1741   18.3143   -5.6076 C   0  0  0  0  0  0  0  0  0  0  0  0
    0.9088   18.6993   -6.7613 N   0  3  0  0  0  0  0  0  0  0  0  0
    0.8237   20.0109   -7.1662 N   0  0  0  0  0  0  0  0  0  0  0  0
    0.0643   20.9222   -6.5004 N   0  3  0  0  0  0  0  0  0  0  0  0
   -0.1158   22.3148   -7.0513 C   0  0  0  0  0  0  0  0  0  0  0  0
   -0.5394   20.5835   -5.3522 C   0  0  0  0  0  0  0  0  0  0  0  0
   -0.4740   19.3108   -4.8994 N   0  3  0  0  0  0  0  0  0  0  0  0
   -1.2517   19.0781   -3.3855 Cl  0  0  0  0  0  0  0  0  0  0  0  0
   -0.5321   16.1829   -4.0206 Cl  0  0  0  0  0  0  0  0  0  0  0  0
    6.9860   -0.7081    2.2438 Cl  0  0  0  0  0  0  0  0  0  0  0  0
  1  2  1  0  0  0  0
  2  3  1  0  0  0  0
  2 11  1  0  0  0  0
  3  4  1  0  0  0  0
  4  5  1  0  0  0  0
  4  9  1  0  0  0  0
  5  6  1  0  0  0  0
  6  7  1  0  0  0  0
  7  8  1  0  0  0  0
  7 93  1  0  0  0  0
  8  9  2  0  0  0  0
  8 17  1  0  0  0  0
  9 10  1  0  0  0  0
 10 11  1  0  0  0  0
 10 15  2  0  0  0  0
 11 12  1  0  0  0  0
 12 13  1  0  0  0  0
 12 36  1  0  0  0  0
 13 14  1  0  0  0  0
 14 15  1  0  0  0  0
 15 16  1  0  0  0  0
 16 17  2  0  0  0  0
 17 18  1  0  0  0  0
 18 19  2  0  0  0  0
 18 31  1  0  0  0  0
 19 20  1  0  0  0  0
 20 21  1  0  0  0  0
 20 29  2  0  0  0  0
 21 22  1  0  0  0  0
 21 26  1  0  0  0  0
 22 23  1  0  0  0  0
 23 24  1  0  0  0  0
 24 25  1  0  0  0  0
 24 35  1  0  0  0  0
 25 26  1  0  0  0  0
 25 34  1  0  0  0  0
 26 27  1  0  0  0  0
 27 28  1  0  0  0  0
 28 29  1  0  0  0  0
 28 33  1  0  0  0  0
 29 30  1  0  0  0  0
 30 31  2  0  0  0  0
 31 32  1  0  0  0  0
 36 37  1  0  0  0  0
 36 41  1  0  0  0  0
 37 38  1  0  0  0  0
 38 39  2  0  0  0  0
 38 53  1  0  0  0  0
 39 40  1  0  0  0  0
 39 50  1  0  0  0  0
 40 41  1  0  0  0  0
 40 49  1  0  0  0  0
 41 42  1  0  0  0  0
 42 43  1  0  0  0  0
 43 44  2  0  0  0  0
 43 48  1  0  0  0  0
 44 45  1  0  0  0  0
 45 46  1  0  0  0  0
 46 47  1  0  0  0  0
 47 48  2  0  0  0  0
 50 51  2  0  0  0  0
 51 52  1  0  0  0  0
 51 59  1  0  0  0  0
 52 53  2  0  0  0  0
 52 55  1  0  0  0  0
 53 54  1  0  0  0  0
 55 56  1  0  0  0  0
 55 57  2  0  0  0  0
 57 58  1  0  0  0  0
 58 59  2  0  0  0  0
 58 61  1  0  0  0  0
 59 60  1  0  0  0  0
 61 62  2  0  0  0  0
 61 71  1  0  0  0  0
 62 63  1  0  0  0  0
 63 64  2  0  0  0  0
 63 69  1  0  0  0  0
 64 65  1  0  0  0  0
 64 74  1  0  0  0  0
 65 66  1  0  0  0  0
 65 67  2  0  0  0  0
 67 68  1  0  0  0  0
 68 69  2  0  0  0  0
 69 70  1  0  0  0  0
 70 71  2  0  0  0  0
 70 73  1  0  0  0  0
 71 72  1  0  0  0  0
 74 75  2  0  0  0  0
 74 80  1  0  0  0  0
 75 76  1  0  0  0  0
 75 77  1  0  0  0  0
 77 78  2  0  0  0  0
 78 79  1  0  0  0  0
 78 85  1  0  0  0  0
 79 80  2  0  0  0  0
 79 82  1  0  0  0  0
 80 81  1  0  0  0  0
 82 83  2  0  0  0  0
 83 84  1  0  0  0  0
 83 92  1  0  0  0  0
 84 85  2  0  0  0  0
 84 90  1  0  0  0  0
 85 86  1  0  0  0  0
 86 87  2  0  0  0  0
 87 88  1  0  0  0  0
 87 89  1  0  0  0  0
 89 90  2  0  0  0  0
 90 91  1  0  0  0  0
M  CHG  8  69   1  70   1  74   1  75   1  83   1  85   1  87   1  90   1
M  END
$$$$