
 OpenBabel11152013013D

 53 61  0  0  1  0  0  0  0  0999 V2000
   -1.3089    5.7536   -0.3779 O   0  0  0  0  0  0  0  0  0  0  0  0
   -1.2960    4.3967   -0.1806 C   0  0  0  0  0  0  0  0  0  0  0  0
   -0.8116    3.5326   -1.0810 C   0  0  0  0  0  0  0  0  0  0  0  0
   -0.3545    3.9435   -2.3138 O   0  0  0  0  0  0  0  0  0  0  0  0
    0.9278    3.4067   -2.6198 C   0  0  2  0  0  0  0  0  0  0  0  0
    1.4166    3.9147   -3.8793 O   0  0  0  0  0  0  0  0  0  0  0  0
    1.6316    5.2833   -4.0392 C   0  0  0  0  0  0  0  0  0  0  0  0
    2.0253    5.7944   -5.2308 C   0  0  0  0  0  0  0  0  0  0  0  0
    2.2782    7.1488   -5.4255 O   0  0  0  0  0  0  0  0  0  0  0  0
    2.0904    8.0527   -4.3883 C   0  0  0  0  0  0  0  0  0  0  0  0
    1.6802    7.6575   -3.1733 C   0  0  0  0  0  0  0  0  0  0  0  0
    1.4375    6.2126   -2.8589 C   0  0  0  0  0  0  0  0  0  0  0  0
    1.3833    8.6493   -2.0877 C   0  0  3  0  0  0  0  0  0  0  0  0
    2.2145    8.3539   -0.9709 O   0  0  0  0  0  0  0  0  0  0  0  0
    2.1700    9.1786    0.1057 C   0  0  0  0  0  0  0  0  0  0  0  0
    2.5955    8.8267    1.1977 O   0  0  0  0  0  0  0  0  0  0  0  0
    1.6550   10.4161   -0.0879 O   0  0  0  0  0  0  0  0  0  0  0  0
    1.3302   10.9559   -1.3667 C   0  0  3  0  0  0  0  0  0  0  0  0
    1.6613   10.0453   -2.4839 C   0  0  0  0  0  0  0  0  0  0  0  0
    2.1322   10.3770   -3.7048 C   0  0  0  0  0  0  0  0  0  0  0  0
    2.3422    9.3877   -4.6711 O   0  0  0  0  0  0  0  0  0  0  0  0
    2.4484   11.7498   -4.1560 C   0  0  0  0  0  0  0  0  0  0  0  0
    1.7836   12.3341   -5.2896 O   0  0  0  0  0  0  0  0  0  0  0  0
    1.5587   12.8618   -3.9691 O   0  0  0  0  0  0  0  0  0  0  0  0
   -0.0725   11.1627   -1.4086 O   0  0  0  0  0  0  0  0  0  0  0  0
    2.2936    4.9885   -6.4436 C   0  0  0  0  0  0  0  0  0  0  0  0
    3.5801    4.5917   -6.5559 N   0  0  0  0  0  0  0  0  0  0  0  0
    3.9387    3.8596   -7.5722 N   0  0  0  0  0  0  0  0  0  0  0  0
    3.0837    3.4653   -8.4827 N   0  0  0  0  0  0  0  0  0  0  0  0
    1.7975    3.8385   -8.4251 C   0  0  0  0  0  0  0  0  0  0  0  0
    1.3272    4.6673   -7.4049 C   0  0  0  0  0  0  0  0  0  0  0  0
   -0.0361    5.0874   -7.4196 C   0  0  0  0  0  0  0  0  0  0  0  0
   -0.9216    4.6031   -8.3919 C   0  0  0  0  0  0  0  0  0  0  0  0
   -2.3416    4.9812   -8.3894 C   0  0  0  0  0  0  0  0  0  0  0  0
   -2.7647    5.8783   -7.6784 O   0  0  0  0  0  0  0  0  0  0  0  0
   -3.2676    4.1876   -9.2907 C   0  0  0  0  0  0  0  0  0  0  0  0
   -4.4440    4.4978   -9.4191 O   0  0  0  0  0  0  0  0  0  0  0  0
   -2.6394    2.9701   -9.9210 C   0  0  1  0  0  0  0  0  0  0  0  0
   -1.2712    3.1576  -10.3156 O   0  0  0  0  0  0  0  0  0  0  0  0
   -0.4695    3.7247   -9.3612 C   0  0  0  0  0  0  0  0  0  0  0  0
    0.8845    3.3826   -9.3873 C   0  0  0  0  0  0  0  0  0  0  0  0
    1.3200    2.5278  -10.3783 O   0  0  0  0  0  0  0  0  0  0  0  0
   -2.7706    1.7491   -9.0531 C   0  0  1  0  0  0  0  0  0  0  0  0
   -2.1825    1.8048   -7.7369 O   0  0  0  0  0  0  0  0  0  0  0  0
   -3.9965    1.0240   -9.1280 O   0  0  0  0  0  0  0  0  0  0  0  0
   -2.9159    0.4383   -9.6829 C   0  0  0  0  0  0  0  0  0  0  0  0
   -2.7234    0.0667  -10.8151 O   0  0  0  0  0  0  0  0  0  0  0  0
    0.8520    1.8717   -2.6938 C   0  0  0  0  0  0  0  0  0  0  0  0
    1.5674    1.2074   -3.4501 O   0  0  0  0  0  0  0  0  0  0  0  0
   -0.1138    1.1819   -1.7530 C   0  0  3  0  0  0  0  0  0  0  0  0
   -0.8016    2.0794   -0.7576 C   0  0  0  0  0  0  0  0  0  0  0  0
   -1.3498    1.6457    0.2547 O   0  0  0  0  0  0  0  0  0  0  0  0
   -1.0323    0.4453   -2.4517 F   0  0  0  0  0  0  0  0  0  0  0  0
  1  2  1  0  0  0  0
  2  3  2  0  0  0  0
  3  4  1  0  0  0  0
  3 51  1  0  0  0  0
  4  5  1  0  0  0  0
  5  6  1  6  0  0  0
  5 48  1  0  0  0  0
  6  7  1  0  0  0  0
  7  8  2  0  0  0  0
  7 12  1  0  0  0  0
  8  9  1  0  0  0  0
  8 26  1  0  0  0  0
  9 10  1  0  0  0  0
 10 11  2  0  0  0  0
 10 21  1  0  0  0  0
 11 12  1  0  0  0  0
 11 13  1  0  0  0  0
 13 14  1  0  0  0  0
 13 19  1  0  0  0  0
 14 15  1  0  0  0  0
 15 16  2  0  0  0  0
 15 17  1  0  0  0  0
 17 18  1  0  0  0  0
 18 19  1  0  0  0  0
 18 25  1  0  0  0  0
 19 20  2  0  0  0  0
 20 21  1  0  0  0  0
 20 22  1  0  0  0  0
 22 23  1  0  0  0  0
 22 24  1  0  0  0  0
 23 24  1  0  0  0  0
 26 27  2  0  0  0  0
 26 31  1  0  0  0  0
 27 28  1  0  0  0  0
 28 29  2  0  0  0  0
 29 30  1  0  0  0  0
 30 31  2  0  0  0  0
 30 41  1  0  0  0  0
 31 32  1  0  0  0  0
 32 33  2  0  0  0  0
 33 34  1  0  0  0  0
 33 40  1  0  0  0  0
 34 35  2  0  0  0  0
 34 36  1  0  0  0  0
 36 37  2  0  0  0  0
 38 36  1  1  0  0  0
 38 39  1  0  0  0  0
 38 43  1  0  0  0  0
 39 40  1  0  0  0  0
 40 41  2  0  0  0  0
 41 42  1  0  0  0  0
 43 44  1  1  0  0  0
 43 45  1  0  0  0  0
 43 46  1  0  0  0  0
 45 46  1  0  0  0  0
 46 47  2  0  0  0  0
 48 49  2  0  0  0  0
 48 50  1  0  0  0  0
 50 51  1  0  0  0  0
 50 53  1  0  0  0  0
 51 52  2  0  0  0  0
M  END
$$$$