
 OpenBabel11222002203D

 54 62  0  0  1  0  0  0  0  0999 V2000
    0.3885    6.3094    1.1464 O   0  0  0  0  0  0  0  0  0  0  0  0
    1.5337    6.7546    1.7461 C   0  0  0  0  0  0  0  0  0  0  0  0
    2.2415    6.0253    2.6175 C   0  0  0  0  0  0  0  0  0  0  0  0
    1.8361    4.7781    3.0692 O   0  0  0  0  0  0  0  0  0  0  0  0
    2.8418    3.7618    3.0018 C   0  0  2  0  0  0  0  0  0  0  0  0
    2.3686    2.5208    3.6025 O   0  0  0  0  0  0  0  0  0  0  0  0
    2.4239    2.3257    4.9792 C   0  0  0  0  0  0  0  0  0  0  0  0
    2.4881    1.0969    5.5658 C   0  0  0  0  0  0  0  0  0  0  0  0
    2.6946    0.9609    6.9566 O   0  0  0  0  0  0  0  0  0  0  0  0
    2.9342    2.0834    7.7480 C   0  0  0  0  0  0  0  0  0  0  0  0
    2.7210    3.3142    7.2553 C   0  0  0  0  0  0  0  0  0  0  0  0
    2.3006    3.5385    5.8491 C   0  0  0  0  0  0  0  0  0  0  0  0
    2.9472    4.5625    8.0429 C   0  0  3  0  0  0  0  0  0  0  0  0
    1.7282    5.2670    8.1106 O   0  0  0  0  0  0  0  0  0  0  0  0
    1.7560    6.4321    8.8138 C   0  0  0  0  0  0  0  0  0  0  0  0
    0.9240    7.3024    8.6123 O   0  0  0  0  0  0  0  0  0  0  0  0
    2.7424    6.5611    9.7400 O   0  0  0  0  0  0  0  0  0  0  0  0
    3.4661    5.5094   10.1697 C   0  0  0  0  0  0  0  0  0  0  0  0
    4.2601    5.5869   11.0957 O   0  0  0  0  0  0  0  0  0  0  0  0
    3.3375    4.2605    9.4176 C   0  0  0  0  0  0  0  0  0  0  0  0
    3.5616    3.0103    9.8861 C   0  0  0  0  0  0  0  0  0  0  0  0
    3.3753    1.9033    9.0467 O   0  3  0  0  0  0  0  0  0  0  0  0
    3.9461    2.7269   11.2899 C   0  0  0  0  0  0  0  0  0  0  0  0
    2.9389    2.5054   12.2876 O   0  0  0  0  0  0  0  0  0  0  0  0
    3.7759    1.4168   11.8516 O   0  0  0  0  0  0  0  0  0  0  0  0
    2.2539   -0.2153    4.8617 C   0  0  0  0  0  0  0  0  0  0  0  0
    1.3590   -0.2315    3.7779 C   0  0  0  0  0  0  0  0  0  0  0  0
    1.0541   -1.4234    3.1624 C   0  0  0  0  0  0  0  0  0  0  0  0
    0.1831   -1.4184    2.1459 F   0  0  0  0  0  0  0  0  0  0  0  0
    1.5596   -2.6001    3.5433 N   0  0  0  0  0  0  0  0  0  0  0  0
    2.3794   -2.6166    4.6097 C   0  0  0  0  0  0  0  0  0  0  0  0
    2.7663   -1.4528    5.3280 C   0  0  0  0  0  0  0  0  0  0  0  0
    3.5467   -1.5521    6.4333 N   0  0  0  0  0  0  0  0  0  0  0  0
    3.9446   -2.7910    6.8476 C   0  0  0  0  0  0  0  0  0  0  0  0
    4.6095   -2.8427    8.1580 C   0  0  0  0  0  0  0  0  0  0  0  0
    4.7657   -1.8336    8.8395 O   0  0  0  0  0  0  0  0  0  0  0  0
    4.9861   -4.2188    8.6697 C   0  0  0  0  0  0  0  0  0  0  0  0
    5.2951   -4.3731    9.8437 O   0  0  0  0  0  0  0  0  0  0  0  0
    4.9763   -5.3292    7.6378 C   0  0  1  0  0  0  0  0  0  0  0  0
    3.9966   -5.2214    6.6066 O   0  0  0  0  0  0  0  0  0  0  0  0
    3.6462   -3.9670    6.1952 C   0  0  0  0  0  0  0  0  0  0  0  0
    2.8657   -3.8657    5.0390 C   0  0  0  0  0  0  0  0  0  0  0  0
    2.3591   -5.0527    4.4388 N   0  0  0  0  0  0  0  0  0  0  0  0
    6.3301   -5.5008    7.0310 C   0  0  1  0  0  0  0  0  0  0  0  0
    6.8682   -4.3446    6.3450 O   0  0  0  0  0  0  0  0  0  0  0  0
    7.2522   -6.2492    7.8178 O   0  0  0  0  0  0  0  0  0  0  0  0
    6.8979   -6.7943    6.6338 C   0  0  0  0  0  0  0  0  0  0  0  0
    7.5793   -7.0688    5.6771 O   0  0  0  0  0  0  0  0  0  0  0  0
    4.2534    4.1825    3.4597 C   0  0  0  0  0  0  0  0  0  0  0  0
    5.2060    3.4315    3.6104 O   0  0  0  0  0  0  0  0  0  0  0  0
    4.3697    5.6404    3.8321 C   0  0  0  0  0  0  0  0  0  0  0  0
    5.0814    5.9752    4.7681 O   0  0  0  0  0  0  0  0  0  0  0  0
    3.4901    6.6381    3.1338 C   0  0  0  0  0  0  0  0  0  0  0  0
    3.8157    7.8038    3.0069 O   0  0  0  0  0  0  0  0  0  0  0  0
  1  2  1  0  0  0  0
  2  3  2  0  0  0  0
  3  4  1  0  0  0  0
  3 53  1  0  0  0  0
  4  5  1  0  0  0  0
  5  6  1  1  0  0  0
  5 49  1  0  0  0  0
  6  7  1  0  0  0  0
  7  8  2  0  0  0  0
  7 12  1  0  0  0  0
  8  9  1  0  0  0  0
  8 26  1  0  0  0  0
  9 10  1  0  0  0  0
 10 11  2  0  0  0  0
 10 22  1  0  0  0  0
 11 12  1  0  0  0  0
 11 13  1  0  0  0  0
 13 14  1  0  0  0  0
 13 20  1  0  0  0  0
 14 15  1  0  0  0  0
 15 16  2  0  0  0  0
 15 17  1  0  0  0  0
 17 18  1  0  0  0  0
 18 19  2  0  0  0  0
 18 20  1  0  0  0  0
 20 21  2  0  0  0  0
 21 22  1  0  0  0  0
 21 23  1  0  0  0  0
 23 24  1  0  0  0  0
 23 25  1  0  0  0  0
 24 25  1  0  0  0  0
 26 27  2  0  0  0  0
 26 32  1  0  0  0  0
 27 28  1  0  0  0  0
 28 29  1  0  0  0  0
 28 30  2  0  0  0  0
 30 31  1  0  0  0  0
 31 32  2  0  0  0  0
 31 42  1  0  0  0  0
 32 33  1  0  0  0  0
 33 34  2  0  0  0  0
 34 35  1  0  0  0  0
 34 41  1  0  0  0  0
 35 36  2  0  0  0  0
 35 37  1  0  0  0  0
 37 38  2  0  0  0  0
 39 37  1  6  0  0  0
 39 40  1  0  0  0  0
 39 44  1  0  0  0  0
 40 41  1  0  0  0  0
 41 42  2  0  0  0  0
 42 43  1  0  0  0  0
 44 45  1  6  0  0  0
 44 46  1  0  0  0  0
 44 47  1  0  0  0  0
 46 47  1  0  0  0  0
 47 48  2  0  0  0  0
 49 50  2  0  0  0  0
 49 51  1  0  0  0  0
 51 52  2  0  0  0  0
 51 53  1  0  0  0  0
 53 54  2  0  0  0  0
M  CHG  1  22   1
M  END
$$$$