
 OpenBabel11222000443D

 55 63  0  0  1  0  0  0  0  0999 V2000
    2.0984    6.0737   -5.8193 O   0  0  0  0  0  0  0  0  0  0  0  0
    1.7530    4.7469   -5.8887 C   0  0  0  0  0  0  0  0  0  0  0  0
    1.9974    3.8773   -4.9008 C   0  0  0  0  0  0  0  0  0  0  0  0
    2.6782    4.2611   -3.7576 O   0  0  0  0  0  0  0  0  0  0  0  0
    2.0890    3.7491   -2.5677 C   0  0  2  0  0  0  0  0  0  0  0  0
    2.7962    4.2322   -1.3957 O   0  0  0  0  0  0  0  0  0  0  0  0
    2.8843    5.6073   -1.2306 C   0  0  0  0  0  0  0  0  0  0  0  0
    3.9430    6.1656   -0.6057 C   0  0  0  0  0  0  0  0  0  0  0  0
    4.0816    7.5455   -0.4311 O   0  0  0  0  0  0  0  0  0  0  0  0
    3.0748    8.4049   -0.8871 C   0  0  0  0  0  0  0  0  0  0  0  0
    1.9468    7.9249   -1.4420 C   0  0  0  0  0  0  0  0  0  0  0  0
    1.7287    6.4609   -1.6874 C   0  0  0  0  0  0  0  0  0  0  0  0
    0.8312    8.8273   -1.8914 C   0  0  3  0  0  0  0  0  0  0  0  0
   -0.2811    8.5603   -1.0564 O   0  0  0  0  0  0  0  0  0  0  0  0
   -1.3972    9.3226   -1.2152 C   0  0  0  0  0  0  0  0  0  0  0  0
   -2.4634    8.9917   -0.7244 O   0  0  0  0  0  0  0  0  0  0  0  0
   -1.2447   10.4679   -1.9217 O   0  0  0  0  0  0  0  0  0  0  0  0
    0.0144   11.0723   -2.1917 C   0  0  3  0  0  0  0  0  0  0  0  0
    1.1572   10.2590   -1.7004 C   0  0  0  0  0  0  0  0  0  0  0  0
    2.3211   10.6846   -1.1607 C   0  0  0  0  0  0  0  0  0  0  0  0
    3.2709    9.7603   -0.7377 O   0  3  0  0  0  0  0  0  0  0  0  0
    2.7096   12.1080   -0.9821 C   0  0  0  0  0  0  0  0  0  0  0  0
    3.5689   12.4905    0.1063 O   0  0  0  0  0  0  0  0  0  0  0  0
    4.0604   12.5237   -1.2458 O   0  0  0  0  0  0  0  0  0  0  0  0
    0.1976   11.1598   -3.5892 O   0  0  0  0  0  0  0  0  0  0  0  0
    5.0364    5.3566   -0.0146 C   0  0  0  0  0  0  0  0  0  0  0  0
    4.9026    4.9384    1.3070 C   0  0  0  0  0  0  0  0  0  0  0  0
    5.8542    4.2007    1.8879 N   0  3  0  0  0  0  0  0  0  0  0  0
    5.7104    3.8359    3.1770 F   0  0  0  0  0  0  0  0  0  0  0  0
    6.9479    3.8277    1.2520 N   0  0  0  0  0  0  0  0  0  0  0  0
    7.1394    4.1649   -0.0306 C   0  0  0  0  0  0  0  0  0  0  0  0
    6.1919    4.9548   -0.7169 C   0  0  0  0  0  0  0  0  0  0  0  0
    6.4406    5.2961   -2.0632 C   0  0  0  0  0  0  0  0  0  0  0  0
    7.5955    4.8523   -2.7209 C   0  0  0  0  0  0  0  0  0  0  0  0
    7.8152    5.2145   -4.1235 C   0  0  0  0  0  0  0  0  0  0  0  0
    7.0194    5.9275   -4.7124 O   0  0  0  0  0  0  0  0  0  0  0  0
    9.0714    4.6905   -4.7738 C   0  0  0  0  0  0  0  0  0  0  0  0
    9.5437    5.2611   -5.7441 O   0  0  0  0  0  0  0  0  0  0  0  0
    9.6513    3.4649   -4.1073 C   0  0  1  0  0  0  0  0  0  0  0  0
    9.6370    3.5467   -2.6667 O   0  0  0  0  0  0  0  0  0  0  0  0
    8.5216    4.0602   -2.0622 C   0  0  0  0  0  0  0  0  0  0  0  0
    8.2924    3.7341   -0.7150 C   0  0  0  0  0  0  0  0  0  0  0  0
    9.2335    2.9113   -0.0126 C   0  0  0  0  0  0  0  0  0  0  0  0
    9.9596    2.2595    0.6185 N   0  0  0  0  0  0  0  0  0  0  0  0
    9.0427    2.1887   -4.6367 C   0  0  1  0  0  0  0  0  0  0  0  0
    9.2096    1.9429   -6.0434 O   0  0  0  0  0  0  0  0  0  0  0  0
    9.1777    1.0349   -3.7997 O   0  0  0  0  0  0  0  0  0  0  0  0
    7.9321    1.4945   -3.9971 C   0  0  0  0  0  0  0  0  0  0  0  0
    7.0852    1.8851   -3.2169 O   0  0  0  0  0  0  0  0  0  0  0  0
    2.1243    2.2298   -2.5310 C   0  0  0  0  0  0  0  0  0  0  0  0
    2.3188    1.5669   -1.5213 O   0  0  0  0  0  0  0  0  0  0  0  0
    1.8425    1.5879   -3.8727 C   0  0  0  0  0  0  0  0  0  0  0  0
    1.8784    0.3747   -3.9902 O   0  0  0  0  0  0  0  0  0  0  0  0
    1.5347    2.4703   -5.0663 C   0  0  0  0  0  0  0  0  0  0  0  0
    0.9215    2.0617   -6.0357 O   0  0  0  0  0  0  0  0  0  0  0  0
  1  2  1  0  0  0  0
  2  3  2  0  0  0  0
  3  4  1  0  0  0  0
  3 54  1  0  0  0  0
  4  5  1  0  0  0  0
  5  6  1  1  0  0  0
  5 50  1  0  0  0  0
  6  7  1  0  0  0  0
  7  8  2  0  0  0  0
  7 12  1  0  0  0  0
  8  9  1  0  0  0  0
  8 26  1  0  0  0  0
  9 10  1  0  0  0  0
 10 11  2  0  0  0  0
 10 21  1  0  0  0  0
 11 12  1  0  0  0  0
 11 13  1  0  0  0  0
 13 14  1  0  0  0  0
 13 19  1  0  0  0  0
 14 15  1  0  0  0  0
 15 16  2  0  0  0  0
 15 17  1  0  0  0  0
 17 18  1  0  0  0  0
 18 19  1  0  0  0  0
 18 25  1  0  0  0  0
 19 20  2  0  0  0  0
 20 21  1  0  0  0  0
 20 22  1  0  0  0  0
 22 23  1  0  0  0  0
 22 24  1  0  0  0  0
 23 24  1  0  0  0  0
 26 27  2  0  0  0  0
 26 32  1  0  0  0  0
 27 28  1  0  0  0  0
 28 29  1  0  0  0  0
 28 30  2  0  0  0  0
 30 31  1  0  0  0  0
 31 32  2  0  0  0  0
 31 42  1  0  0  0  0
 32 33  1  0  0  0  0
 33 34  2  0  0  0  0
 34 35  1  0  0  0  0
 34 41  1  0  0  0  0
 35 36  2  0  0  0  0
 35 37  1  0  0  0  0
 37 38  2  0  0  0  0
 39 37  1  6  0  0  0
 39 40  1  0  0  0  0
 39 45  1  0  0  0  0
 40 41  1  0  0  0  0
 41 42  2  0  0  0  0
 42 43  1  0  0  0  0
 43 44  3  0  0  0  0
 45 46  1  6  0  0  0
 45 47  1  0  0  0  0
 45 48  1  0  0  0  0
 47 48  1  0  0  0  0
 48 49  2  0  0  0  0
 50 51  2  0  0  0  0
 50 52  1  0  0  0  0
 52 53  2  0  0  0  0
 52 54  1  0  0  0  0
 54 55  2  0  0  0  0
M  CHG  2  21   1  28   1
M  END
$$$$