
 OpenBabel11262000053D

 54 62  0  0  1  0  0  0  0  0999 V2000
    4.4229    6.9610   -4.7707 O   0  0  0  0  0  0  0  0  0  0  0  0
    3.9771    5.6877   -5.0276 C   0  0  0  0  0  0  0  0  0  0  0  0
    3.7891    4.7792   -4.0631 C   0  0  0  0  0  0  0  0  0  0  0  0
    4.0811    5.0882   -2.7481 O   0  0  0  0  0  0  0  0  0  0  0  0
    3.2609    4.3840   -1.8257 C   0  0  2  0  0  0  0  0  0  0  0  0
    3.5766    4.8087   -0.4833 O   0  0  0  0  0  0  0  0  0  0  0  0
    3.4121    6.1535   -0.1834 C   0  0  0  0  0  0  0  0  0  0  0  0
    4.1853    6.7452    0.7498 C   0  0  0  0  0  0  0  0  0  0  0  0
    4.0370    8.0838    1.1248 O   0  0  0  0  0  0  0  0  0  0  0  0
    3.0266    8.8581    0.5480 C   0  0  0  0  0  0  0  0  0  0  0  0
    2.1874    8.3405   -0.3736 C   0  0  0  0  0  0  0  0  0  0  0  0
    2.2846    6.9132   -0.8385 C   0  0  0  0  0  0  0  0  0  0  0  0
    1.1176    9.1763   -1.0350 C   0  0  3  0  0  0  0  0  0  0  0  0
   -0.1509    8.6225   -0.7423 O   0  0  0  0  0  0  0  0  0  0  0  0
   -1.2210    9.3538   -1.1357 C   0  0  0  0  0  0  0  0  0  0  0  0
   -2.3763    8.8114   -1.1607 N   0  0  0  0  0  0  0  0  0  0  0  0
   -1.0510   10.6472   -1.4903 O   0  0  0  0  0  0  0  0  0  0  0  0
    0.0551   11.3298   -1.1458 C   0  0  0  0  0  0  0  0  0  0  0  0
    0.2232   12.5207   -1.3568 O   0  0  0  0  0  0  0  0  0  0  0  0
    1.1083   10.5483   -0.5083 C   0  0  0  0  0  0  0  0  0  0  0  0
    1.9593   11.0196    0.4246 C   0  0  0  0  0  0  0  0  0  0  0  0
    2.9234   10.1734    0.9551 O   0  3  0  0  0  0  0  0  0  0  0  0
    1.9789   12.4072    0.9550 C   0  0  0  0  0  0  0  0  0  0  0  0
    2.9381   12.7663    1.9711 O   0  0  0  0  0  0  0  0  0  0  0  0
    3.0618   13.2924    0.6379 O   0  0  0  0  0  0  0  0  0  0  0  0
    5.1862    5.9900    1.5483 C   0  0  0  0  0  0  0  0  0  0  0  0
    4.6776    5.4885    2.6934 N   0  0  0  0  0  0  0  0  0  0  0  0
    5.5267    4.8464    3.5021 C   0  0  0  0  0  0  0  0  0  0  0  0
    5.0360    4.3324    4.6335 F   0  0  0  0  0  0  0  0  0  0  0  0
    6.8695    4.7422    3.2571 C   0  0  0  0  0  0  0  0  0  0  0  0
    7.3713    5.3284    2.0967 C   0  0  0  0  0  0  0  0  0  0  0  0
    6.5105    5.9540    1.2104 N   0  3  0  0  0  0  0  0  0  0  0  0
    7.0117    6.5106    0.0755 C   0  0  0  0  0  0  0  0  0  0  0  0
    8.3810    6.5118   -0.1877 C   0  0  0  0  0  0  0  0  0  0  0  0
    8.8730    7.1509   -1.3987 C   0  0  0  0  0  0  0  0  0  0  0  0
    8.0919    7.7649   -2.1050 O   0  0  0  0  0  0  0  0  0  0  0  0
   10.3547    7.0441   -1.6763 C   0  0  0  0  0  0  0  0  0  0  0  0
   10.8945    7.8565   -2.4078 O   0  0  0  0  0  0  0  0  0  0  0  0
   11.0384    5.9013   -0.9508 C   0  0  1  0  0  0  0  0  0  0  0  0
   10.6074    5.7955    0.4269 O   0  0  0  0  0  0  0  0  0  0  0  0
    9.2692    5.9038    0.6710 C   0  0  0  0  0  0  0  0  0  0  0  0
    8.7546    5.3191    1.8196 C   0  0  0  0  0  0  0  0  0  0  0  0
    9.5913    4.7218    2.6804 F   0  0  0  0  0  0  0  0  0  0  0  0
   10.9303    4.6002   -1.7163 C   0  0  1  0  0  0  0  0  0  0  0  0
   11.5106    4.5900   -3.0284 O   0  0  0  0  0  0  0  0  0  0  0  0
   11.0842    3.3955   -0.9552 O   0  0  0  0  0  0  0  0  0  0  0  0
    9.8772    3.6125   -1.5005 C   0  0  0  0  0  0  0  0  0  0  0  0
    8.7695    3.7329   -1.0166 O   0  0  0  0  0  0  0  0  0  0  0  0
    3.5321    2.8892   -1.9761 C   0  0  0  0  0  0  0  0  0  0  0  0
    3.8230    2.1809   -1.0106 O   0  0  0  0  0  0  0  0  0  0  0  0
    3.3637    2.3428   -3.3774 C   0  0  3  0  0  0  0  0  0  0  0  0
    3.2861    3.4172   -4.4402 C   0  0  0  0  0  0  0  0  0  0  0  0
    2.8414    3.2032   -5.5653 O   0  0  0  0  0  0  0  0  0  0  0  0
    4.3554    1.4522   -3.6710 F   0  0  0  0  0  0  0  0  0  0  0  0
  1  2  1  0  0  0  0
  2  3  2  0  0  0  0
  3  4  1  0  0  0  0
  3 52  1  0  0  0  0
  4  5  1  0  0  0  0
  5  6  1  1  0  0  0
  5 49  1  0  0  0  0
  6  7  1  0  0  0  0
  7  8  2  0  0  0  0
  7 12  1  0  0  0  0
  8  9  1  0  0  0  0
  8 26  1  0  0  0  0
  9 10  1  0  0  0  0
 10 11  2  0  0  0  0
 10 22  1  0  0  0  0
 11 12  1  0  0  0  0
 11 13  1  0  0  0  0
 13 14  1  0  0  0  0
 13 20  1  0  0  0  0
 14 15  1  0  0  0  0
 15 16  2  0  0  0  0
 15 17  1  0  0  0  0
 17 18  1  0  0  0  0
 18 19  2  0  0  0  0
 18 20  1  0  0  0  0
 20 21  2  0  0  0  0
 21 22  1  0  0  0  0
 21 23  1  0  0  0  0
 23 24  1  0  0  0  0
 23 25  1  0  0  0  0
 24 25  1  0  0  0  0
 26 27  2  0  0  0  0
 26 32  1  0  0  0  0
 27 28  1  0  0  0  0
 28 29  1  0  0  0  0
 28 30  2  0  0  0  0
 30 31  1  0  0  0  0
 31 32  2  0  0  0  0
 31 42  1  0  0  0  0
 32 33  1  0  0  0  0
 33 34  2  0  0  0  0
 34 35  1  0  0  0  0
 34 41  1  0  0  0  0
 35 36  2  0  0  0  0
 35 37  1  0  0  0  0
 37 38  2  0  0  0  0
 39 37  1  6  0  0  0
 39 40  1  0  0  0  0
 39 44  1  0  0  0  0
 40 41  1  0  0  0  0
 41 42  2  0  0  0  0
 42 43  1  0  0  0  0
 44 45  1  6  0  0  0
 44 46  1  0  0  0  0
 44 47  1  0  0  0  0
 46 47  1  0  0  0  0
 47 48  2  0  0  0  0
 49 50  2  0  0  0  0
 49 51  1  0  0  0  0
 51 52  1  0  0  0  0
 51 54  1  0  0  0  0
 52 53  2  0  0  0  0
M  CHG  2  22   1  32   1
M  END
$$$$