
 OpenBabel11242023073D

 53 61  0  0  1  0  0  0  0  0999 V2000
    1.3543    4.9611    0.8980 O   0  0  0  0  0  0  0  0  0  0  0  0
    1.6347    3.6191    0.8230 C   0  0  0  0  0  0  0  0  0  0  0  0
    1.9753    3.0126   -0.3206 C   0  0  0  0  0  0  0  0  0  0  0  0
    1.9970    3.6950   -1.5251 O   0  0  0  0  0  0  0  0  0  0  0  0
    3.1838    3.4774   -2.2708 C   0  0  2  0  0  0  0  0  0  0  0  0
    3.1506    4.1194   -3.5758 O   0  0  0  0  0  0  0  0  0  0  0  0
    3.0047    5.4907   -3.6842 C   0  0  0  0  0  0  0  0  0  0  0  0
    3.5018    6.1471   -4.7546 C   0  0  0  0  0  0  0  0  0  0  0  0
    3.3427    7.5221   -4.9442 O   0  0  0  0  0  0  0  0  0  0  0  0
    2.7014    8.2873   -3.9663 C   0  0  0  0  0  0  0  0  0  0  0  0
    2.1911    7.7189   -2.8580 C   0  0  0  0  0  0  0  0  0  0  0  0
    2.2261    6.2350   -2.6274 C   0  0  0  0  0  0  0  0  0  0  0  0
    1.5151    8.5296   -1.7827 C   0  0  3  0  0  0  0  0  0  0  0  0
    2.2472    8.3657   -0.5796 O   0  0  0  0  0  0  0  0  0  0  0  0
    1.7199    8.9894    0.5158 C   0  0  0  0  0  0  0  0  0  0  0  0
    2.0370    8.6853    1.6456 O   0  0  0  0  0  0  0  0  0  0  0  0
    0.8012    9.9492    0.2261 O   0  0  0  0  0  0  0  0  0  0  0  0
    0.9819   10.7491   -0.9358 C   0  0  3  0  0  0  0  0  0  0  0  0
    1.5697    9.9811   -2.0691 C   0  0  0  0  0  0  0  0  0  0  0  0
    2.1019   10.4914   -3.2016 C   0  0  0  0  0  0  0  0  0  0  0  0
    2.6195    9.6466   -4.1718 O   0  3  0  0  0  0  0  0  0  0  0  0
    2.1616   11.9392   -3.5168 C   0  0  0  0  0  0  0  0  0  0  0  0
    2.7514   12.3814   -4.7546 O   0  0  0  0  0  0  0  0  0  0  0  0
    1.3334   12.5070   -4.5380 O   0  0  0  0  0  0  0  0  0  0  0  0
   -0.2792   11.1735   -1.4082 O   0  0  0  0  0  0  0  0  0  0  0  0
    4.3303    5.4909   -5.7952 C   0  0  0  0  0  0  0  0  0  0  0  0
    5.7046    5.4220   -5.5722 C   0  0  0  0  0  0  0  0  0  0  0  0
    6.5253    4.9049   -6.4925 N   0  3  0  0  0  0  0  0  0  0  0  0
    7.8515    4.8903   -6.2572 F   0  0  0  0  0  0  0  0  0  0  0  0
    6.0912    4.4413   -7.6452 N   0  0  0  0  0  0  0  0  0  0  0  0
    4.7823    4.4431   -7.9108 C   0  0  0  0  0  0  0  0  0  0  0  0
    3.8324    4.9596   -7.0049 C   0  0  0  0  0  0  0  0  0  0  0  0
    2.4603    4.9164   -7.3642 C   0  0  0  0  0  0  0  0  0  0  0  0
    2.0527    4.3783   -8.5949 C   0  0  0  0  0  0  0  0  0  0  0  0
    0.6425    4.3359   -9.0064 C   0  0  0  0  0  0  0  0  0  0  0  0
   -0.3186    5.0297   -8.4834 N   0  0  0  0  0  0  0  0  0  0  0  0
    0.2942    3.4322  -10.1610 C   0  0  0  0  0  0  0  0  0  0  0  0
   -0.9292    3.3736  -10.5853 N   0  0  0  0  0  0  0  0  0  0  0  0
    1.4265    2.6249  -10.7434 C   0  0  1  0  0  0  0  0  0  0  0  0
    2.6875    3.3179  -10.6880 O   0  0  0  0  0  0  0  0  0  0  0  0
    2.9979    3.8660   -9.4741 C   0  0  0  0  0  0  0  0  0  0  0  0
    4.3456    3.9255   -9.1268 C   0  0  0  0  0  0  0  0  0  0  0  0
    5.2620    3.4584   -9.9904 F   0  0  0  0  0  0  0  0  0  0  0  0
    1.5362    1.2718  -10.0828 C   0  0  1  0  0  0  0  0  0  0  0  0
    1.7754    1.2494   -8.6684 O   0  0  0  0  0  0  0  0  0  0  0  0
    0.6790    0.2559  -10.5956 O   0  0  0  0  0  0  0  0  0  0  0  0
    2.1179    0.1344  -10.7629 N   0  0  0  0  0  0  0  0  0  0  0  0
    3.4367    2.0101   -2.5901 C   0  0  0  0  0  0  0  0  0  0  0  0
    4.1602    1.6246   -3.5008 O   0  0  0  0  0  0  0  0  0  0  0  0
    2.7426    1.0481   -1.6509 C   0  0  0  0  0  0  0  0  0  0  0  0
    2.5237   -0.0981   -2.0019 O   0  0  0  0  0  0  0  0  0  0  0  0
    2.2803    1.5565   -0.3013 C   0  0  0  0  0  0  0  0  0  0  0  0
    2.2220    0.8455    0.6837 O   0  0  0  0  0  0  0  0  0  0  0  0
  1  2  1  0  0  0  0
  2  3  2  0  0  0  0
  3  4  1  0  0  0  0
  3 52  1  0  0  0  0
  4  5  1  0  0  0  0
  5  6  1  6  0  0  0
  5 48  1  0  0  0  0
  6  7  1  0  0  0  0
  7  8  2  0  0  0  0
  7 12  1  0  0  0  0
  8  9  1  0  0  0  0
  8 26  1  0  0  0  0
  9 10  1  0  0  0  0
 10 11  2  0  0  0  0
 10 21  1  0  0  0  0
 11 12  1  0  0  0  0
 11 13  1  0  0  0  0
 13 14  1  0  0  0  0
 13 19  1  0  0  0  0
 14 15  1  0  0  0  0
 15 16  2  0  0  0  0
 15 17  1  0  0  0  0
 17 18  1  0  0  0  0
 18 19  1  0  0  0  0
 18 25  1  0  0  0  0
 19 20  2  0  0  0  0
 20 21  1  0  0  0  0
 20 22  1  0  0  0  0
 22 23  1  0  0  0  0
 22 24  1  0  0  0  0
 23 24  1  0  0  0  0
 26 27  2  0  0  0  0
 26 32  1  0  0  0  0
 27 28  1  0  0  0  0
 28 29  1  0  0  0  0
 28 30  2  0  0  0  0
 30 31  1  0  0  0  0
 31 32  2  0  0  0  0
 31 42  1  0  0  0  0
 32 33  1  0  0  0  0
 33 34  2  0  0  0  0
 34 35  1  0  0  0  0
 34 41  1  0  0  0  0
 35 36  2  0  0  0  0
 35 37  1  0  0  0  0
 37 38  2  0  0  0  0
 39 37  1  1  0  0  0
 39 40  1  0  0  0  0
 39 44  1  0  0  0  0
 40 41  1  0  0  0  0
 41 42  2  0  0  0  0
 42 43  1  0  0  0  0
 44 45  1  1  0  0  0
 44 46  1  0  0  0  0
 44 47  1  0  0  0  0
 46 47  1  0  0  0  0
 48 49  2  0  0  0  0
 48 50  1  0  0  0  0
 50 51  2  0  0  0  0
 50 52  1  0  0  0  0
 52 53  2  0  0  0  0
M  CHG  2  21   1  28   1
M  END
$$$$