
 OpenBabel11252002233D

 52 61  0  0  1  0  0  0  0  0999 V2000
   -5.2295   -8.6710   12.5700 O   0  0  0  0  0  0  0  0  0  0  0  0
   -4.9801   -8.2013   13.8344 C   0  0  0  0  0  0  0  0  0  0  0  0
   -5.1521   -6.9219   14.1873 C   0  0  0  0  0  0  0  0  0  0  0  0
   -5.5775   -5.9688   13.2730 O   0  0  0  0  0  0  0  0  0  0  0  0
   -6.5183   -5.0582   13.8398 C   0  0  2  0  0  0  0  0  0  0  0  0
   -7.0567   -4.1927   12.8013 O   0  0  0  0  0  0  0  0  0  0  0  0
   -7.8650   -4.7829   11.8312 C   0  0  0  0  0  0  0  0  0  0  0  0
   -7.9758   -4.3066   10.5581 C   0  0  0  0  0  0  0  0  0  0  0  0
   -8.8242   -4.9500    9.6282 O   0  0  0  0  0  0  0  0  0  0  0  0
   -9.6942   -5.9752   10.0321 C   0  0  0  0  0  0  0  0  0  0  0  0
   -9.6665   -6.4440   11.2873 C   0  0  0  0  0  0  0  0  0  0  0  0
   -8.7008   -5.9506   12.3003 C   0  0  0  0  0  0  0  0  0  0  0  0
  -10.6204   -7.4650   11.7240 C   0  0  0  0  0  0  0  0  0  0  0  0
  -10.4685   -7.9570   12.9626 N   0  0  0  0  0  0  0  0  0  0  0  0
  -11.3944   -8.8410   13.3578 C   0  0  0  0  0  0  0  0  0  0  0  0
  -12.4306   -9.2450   12.6129 N   0  0  0  0  0  0  0  0  0  0  0  0
  -12.5423   -8.7199   11.3795 C   0  0  0  0  0  0  0  0  0  0  0  0
  -11.6416   -7.8120   10.8661 C   0  0  0  0  0  0  0  0  0  0  0  0
  -11.7497   -7.1644    9.5224 C   0  0  3  0  0  0  0  0  0  0  0  0
  -10.5679   -6.4967    9.0898 O   0  3  0  0  0  0  0  0  0  0  0  0
  -12.8537   -6.1356    9.5055 C   0  0  0  0  0  0  0  0  0  0  0  0
  -13.1446   -5.4380    8.2553 N   0  0  0  0  0  0  0  0  0  0  0  0
  -14.1368   -6.2746    8.8715 N   0  0  0  0  0  0  0  0  0  0  0  0
   -7.2072   -3.1167    9.9934 C   0  0  0  0  0  0  0  0  0  0  0  0
   -6.0007   -2.7587   10.6059 C   0  0  0  0  0  0  0  0  0  0  0  0
   -5.2555   -1.7400   10.1707 N   0  3  0  0  0  0  0  0  0  0  0  0
   -4.1364   -1.4116   10.8447 F   0  0  0  0  0  0  0  0  0  0  0  0
   -5.5530   -1.0578    9.0919 N   0  0  0  0  0  0  0  0  0  0  0  0
   -6.6591   -1.3410    8.4146 C   0  0  0  0  0  0  0  0  0  0  0  0
   -7.5707   -2.3434    8.8341 C   0  0  0  0  0  0  0  0  0  0  0  0
   -8.7515   -2.4683    8.0435 C   0  0  0  0  0  0  0  0  0  0  0  0
   -8.9399   -1.7330    6.8528 C   0  0  0  0  0  0  0  0  0  0  0  0
   -8.0008   -0.8172    6.4390 C   0  0  0  0  0  0  0  0  0  0  0  0
   -6.8913   -0.6096    7.2458 C   0  0  0  0  0  0  0  0  0  0  0  0
   -5.9857    0.3059    6.8679 F   0  0  0  0  0  0  0  0  0  0  0  0
   -8.1564   -0.0704    5.3048 O   0  0  0  0  0  0  0  0  0  0  0  0
   -8.8086   -0.7676    4.2115 C   0  0  1  0  0  0  0  0  0  0  0  0
  -10.0068   -1.5729    4.5349 C   0  0  0  0  0  0  0  0  0  0  0  0
  -10.7278   -2.0936    3.6991 O   0  0  0  0  0  0  0  0  0  0  0  0
  -10.1114   -1.9606    6.0006 C   0  0  0  0  0  0  0  0  0  0  0  0
  -11.0628   -2.5820    6.4521 O   0  0  0  0  0  0  0  0  0  0  0  0
   -8.8274   -0.0878    2.9819 O   0  0  0  0  0  0  0  0  0  0  0  0
   -7.9703   -1.2672    3.0618 C   0  0  1  0  0  0  0  0  0  0  0  0
   -6.5695   -1.0933    3.4675 O   0  0  0  0  0  0  0  0  0  0  0  0
   -6.8545   -1.0171    2.1899 C   0  0  0  0  0  0  0  0  0  0  0  0
   -6.3951   -1.6410    1.2412 O   0  0  0  0  0  0  0  0  0  0  0  0
   -5.8394   -4.2223   14.9143 C   0  0  0  0  0  0  0  0  0  0  0  0
   -5.9517   -3.0106   15.0246 O   0  0  0  0  0  0  0  0  0  0  0  0
   -4.9941   -5.0544   15.8597 C   0  0  0  0  0  0  0  0  0  0  0  0
   -4.3989   -4.5280   16.7831 O   0  0  0  0  0  0  0  0  0  0  0  0
   -4.8712   -6.5440   15.6029 C   0  0  0  0  0  0  0  0  0  0  0  0
   -4.6239   -7.3410   16.4887 O   0  0  0  0  0  0  0  0  0  0  0  0
  1  2  1  0  0  0  0
  2  3  2  0  0  0  0
  3  4  1  0  0  0  0
  3 51  1  0  0  0  0
  4  5  1  0  0  0  0
  5  6  1  6  0  0  0
  5 47  1  0  0  0  0
  6  7  1  0  0  0  0
  7  8  2  0  0  0  0
  7 12  1  0  0  0  0
  8  9  1  0  0  0  0
  8 24  1  0  0  0  0
  9 10  1  0  0  0  0
 10 11  2  0  0  0  0
 10 20  1  0  0  0  0
 11 12  1  0  0  0  0
 11 13  1  0  0  0  0
 13 14  2  0  0  0  0
 13 18  1  0  0  0  0
 14 15  1  0  0  0  0
 15 16  2  0  0  0  0
 16 17  1  0  0  0  0
 17 18  2  0  0  0  0
 18 19  1  0  0  0  0
 19 20  1  0  0  0  0
 19 21  1  0  0  0  0
 21 22  1  0  0  0  0
 21 23  1  0  0  0  0
 22 23  1  0  0  0  0
 24 25  2  0  0  0  0
 24 30  1  0  0  0  0
 25 26  1  0  0  0  0
 26 27  1  0  0  0  0
 26 28  2  0  0  0  0
 28 29  1  0  0  0  0
 29 30  2  0  0  0  0
 29 34  1  0  0  0  0
 30 31  1  0  0  0  0
 31 32  2  0  0  0  0
 32 33  1  0  0  0  0
 32 40  1  0  0  0  0
 33 34  2  0  0  0  0
 33 36  1  0  0  0  0
 34 35  1  0  0  0  0
 37 36  1  1  0  0  0
 37 38  1  0  0  0  0
 37 42  1  0  0  0  0
 37 43  1  0  0  0  0
 38 39  2  0  0  0  0
 38 40  1  0  0  0  0
 40 41  2  0  0  0  0
 43 42  1  1  0  0  0
 43 44  1  0  0  0  0
 43 45  1  0  0  0  0
 44 45  1  0  0  0  0
 45 46  2  0  0  0  0
 47 48  2  0  0  0  0
 47 49  1  0  0  0  0
 49 50  2  0  0  0  0
 49 51  1  0  0  0  0
 51 52  2  0  0  0  0
M  CHG  2  20   1  26   1
M  END
$$$$