
 OpenBabel11142001083D

 52 60  0  0  1  0  0  0  0  0999 V2000
   -1.5572    6.1941   -2.9139 O   0  0  0  0  0  0  0  0  0  0  0  0
   -2.0270    5.0130   -2.3982 C   0  0  0  0  0  0  0  0  0  0  0  0
   -1.5202    3.8230   -2.7431 C   0  0  0  0  0  0  0  0  0  0  0  0
   -0.5285    3.7025   -3.7017 O   0  0  0  0  0  0  0  0  0  0  0  0
    0.4934    2.7541   -3.3531 C   0  0  2  0  0  0  0  0  0  0  0  0
    1.6278    2.8123   -4.2433 O   0  0  0  0  0  0  0  0  0  0  0  0
    2.1595    4.0618   -4.5663 C   0  0  0  0  0  0  0  0  0  0  0  0
    2.8397    4.2876   -5.7226 C   0  0  0  0  0  0  0  0  0  0  0  0
    3.3489    5.5601   -6.0500 O   0  0  0  0  0  0  0  0  0  0  0  0
    3.1016    6.6449   -5.2219 C   0  0  0  0  0  0  0  0  0  0  0  0
    2.4815    6.5051   -4.0441 C   0  0  0  0  0  0  0  0  0  0  0  0
    1.9756    5.1898   -3.5762 C   0  0  0  0  0  0  0  0  0  0  0  0
    2.2111    7.6900   -3.1573 C   0  0  3  0  0  0  0  0  0  0  0  0
    2.8769    7.4383   -1.9160 O   0  0  0  0  0  0  0  0  0  0  0  0
    3.1071    8.4450   -1.0588 C   0  0  0  0  0  0  0  0  0  0  0  0
    3.6024    8.1821    0.0940 N   0  0  0  0  0  0  0  0  0  0  0  0
    2.8229    9.7095   -1.4112 O   0  0  0  0  0  0  0  0  0  0  0  0
    2.4160   10.0665   -2.7282 C   0  0  3  0  0  0  0  0  0  0  0  0
    2.6927    8.9876   -3.7048 C   0  0  0  0  0  0  0  0  0  0  0  0
    3.3081    9.0668   -4.9080 C   0  0  0  0  0  0  0  0  0  0  0  0
    3.4984    7.8941   -5.6360 N   0  0  0  0  0  0  0  0  0  0  0  0
    3.8134   10.3181   -5.5269 C   0  0  0  0  0  0  0  0  0  0  0  0
    5.2031   10.4917   -5.8457 O   0  0  0  0  0  0  0  0  0  0  0  0
    4.2313   10.3735   -6.9031 O   0  0  0  0  0  0  0  0  0  0  0  0
    1.0188   10.3181   -2.7244 O   0  0  0  0  0  0  0  0  0  0  0  0
    3.2138    3.2249   -6.8131 C   0  0  3  0  0  0  0  0  0  0  0  0
    4.4412    2.6903   -6.5476 N   0  0  0  0  0  0  0  0  0  0  0  0
    4.6119    1.0989   -6.1768 P   0  3  0  0  0  0  0  0  0  0  0  0
    3.2763    0.3366   -6.7342 N   0  0  0  0  0  0  0  0  0  0  0  0
    2.1960    1.0074   -7.0979 C   0  0  0  0  0  0  0  0  0  0  0  0
    2.0827    2.4131   -7.1868 C   0  0  0  0  0  0  0  0  0  0  0  0
    0.8811    2.9489   -7.7177 C   0  0  0  0  0  0  0  0  0  0  0  0
   -0.2038    2.1215   -8.0479 C   0  0  0  0  0  0  0  0  0  0  0  0
   -0.1191    0.7566   -7.8655 C   0  0  0  0  0  0  0  0  0  0  0  0
    1.0966    0.2227   -7.4310 C   0  0  0  0  0  0  0  0  0  0  0  0
   -1.1133   -0.1409   -8.1178 O   0  0  0  0  0  0  0  0  0  0  0  0
   -2.4293    0.3509   -8.3659 C   0  0  2  0  0  0  0  0  0  0  0  0
   -2.6187    1.7987   -8.7766 C   0  0  0  0  0  0  0  0  0  0  0  0
   -3.6766    2.2611   -9.1877 O   0  0  0  0  0  0  0  0  0  0  0  0
   -1.4117    2.6903   -8.6415 C   0  0  0  0  0  0  0  0  0  0  0  0
   -1.4398    3.8465   -9.0365 O   0  0  0  0  0  0  0  0  0  0  0  0
   -3.3411    0.0097   -7.2078 C   0  0  1  0  0  0  0  0  0  0  0  0
   -2.9295    0.5108   -5.9078 O   0  0  0  0  0  0  0  0  0  0  0  0
   -4.7323    0.1693   -7.5145 O   0  0  0  0  0  0  0  0  0  0  0  0
   -4.3061   -1.0853   -7.2077 C   0  0  0  0  0  0  0  0  0  0  0  0
   -4.6903   -1.8340   -6.3574 O   0  0  0  0  0  0  0  0  0  0  0  0
   -0.1527    1.3674   -3.3974 C   0  0  0  0  0  0  0  0  0  0  0  0
    0.3615    0.3411   -3.8164 O   0  0  0  0  0  0  0  0  0  0  0  0
   -1.5533    1.3454   -2.8072 C   0  0  0  0  0  0  0  0  0  0  0  0
   -2.2836    0.3737   -2.9275 O   0  0  0  0  0  0  0  0  0  0  0  0
   -2.0670    2.5930   -2.1215 C   0  0  0  0  0  0  0  0  0  0  0  0
   -2.7990    2.5606   -1.1492 O   0  0  0  0  0  0  0  0  0  0  0  0
  1  2  1  0  0  0  0
  2  3  2  0  0  0  0
  3  4  1  0  0  0  0
  3 51  1  0  0  0  0
  4  5  1  0  0  0  0
  5  6  1  6  0  0  0
  5 47  1  0  0  0  0
  6  7  1  0  0  0  0
  7  8  2  0  0  0  0
  7 12  1  0  0  0  0
  8  9  1  0  0  0  0
  8 26  1  0  0  0  0
  9 10  1  0  0  0  0
 10 11  2  0  0  0  0
 10 21  1  0  0  0  0
 11 12  1  0  0  0  0
 11 13  1  0  0  0  0
 13 14  1  0  0  0  0
 13 19  1  0  0  0  0
 14 15  1  0  0  0  0
 15 16  2  0  0  0  0
 15 17  1  0  0  0  0
 17 18  1  0  0  0  0
 18 19  1  0  0  0  0
 18 25  1  0  0  0  0
 19 20  2  0  0  0  0
 20 21  1  0  0  0  0
 20 22  1  0  0  0  0
 22 23  1  0  0  0  0
 22 24  1  0  0  0  0
 23 24  1  0  0  0  0
 26 27  1  0  0  0  0
 26 31  1  0  0  0  0
 27 28  2  0  0  0  0
 28 29  2  0  0  0  0
 29 30  1  0  0  0  0
 30 31  2  0  0  0  0
 30 35  1  0  0  0  0
 31 32  1  0  0  0  0
 32 33  2  0  0  0  0
 33 34  1  0  0  0  0
 33 40  1  0  0  0  0
 34 35  2  0  0  0  0
 34 36  1  0  0  0  0
 37 36  1  1  0  0  0
 37 38  1  0  0  0  0
 37 42  1  0  0  0  0
 38 39  2  0  0  0  0
 38 40  1  0  0  0  0
 40 41  2  0  0  0  0
 42 43  1  1  0  0  0
 42 44  1  0  0  0  0
 42 45  1  0  0  0  0
 44 45  1  0  0  0  0
 45 46  2  0  0  0  0
 47 48  2  0  0  0  0
 47 49  1  0  0  0  0
 49 50  2  0  0  0  0
 49 51  1  0  0  0  0
 51 52  2  0  0  0  0
M  CHG  1  28   1
M  END
$$$$