
 OpenBabel11222017523D

 55 63  0  0  1  0  0  0  0  0999 V2000
    4.5201    1.0059   -3.0128 O   0  0  0  0  0  0  0  0  0  0  0  0
    3.2047    1.3422   -2.8153 C   0  0  0  0  0  0  0  0  0  0  0  0
    2.2179    0.4430   -2.9071 C   0  0  0  0  0  0  0  0  0  0  0  0
    2.5232   -0.8696   -3.2170 O   0  0  0  0  0  0  0  0  0  0  0  0
    1.5686   -1.8677   -2.9004 C   0  0  2  0  0  0  0  0  0  0  0  0
    1.9519   -3.1761   -3.4186 O   0  0  0  0  0  0  0  0  0  0  0  0
    2.0879   -3.3179   -4.7990 C   0  0  0  0  0  0  0  0  0  0  0  0
    1.8500   -4.4968   -5.4173 C   0  0  0  0  0  0  0  0  0  0  0  0
    1.9856   -4.6677   -6.8016 O   0  0  0  0  0  0  0  0  0  0  0  0
    2.3867   -3.5872   -7.6012 C   0  0  0  0  0  0  0  0  0  0  0  0
    2.6834   -2.3944   -7.0581 C   0  0  0  0  0  0  0  0  0  0  0  0
    2.5705   -2.1315   -5.5948 C   0  0  0  0  0  0  0  0  0  0  0  0
    3.1342   -1.2171   -7.8787 C   0  0  3  0  0  0  0  0  0  0  0  0
    4.4598   -0.9140   -7.4892 O   0  0  0  0  0  0  0  0  0  0  0  0
    5.0837    0.1058   -8.1397 C   0  0  0  0  0  0  0  0  0  0  0  0
    6.0827    0.6333   -7.6810 O   0  0  0  0  0  0  0  0  0  0  0  0
    4.5268    0.4850   -9.3152 O   0  0  0  0  0  0  0  0  0  0  0  0
    3.6422   -0.3390  -10.0674 C   0  0  3  0  0  0  0  0  0  0  0  0
    3.1910   -1.5401   -9.3171 C   0  0  0  0  0  0  0  0  0  0  0  0
    2.8734   -2.7560   -9.8124 C   0  0  0  0  0  0  0  0  0  0  0  0
    2.4789   -3.7818   -8.9625 O   0  3  0  0  0  0  0  0  0  0  0  0
    2.9304   -3.0967  -11.2514 C   0  0  0  0  0  0  0  0  0  0  0  0
    4.1244   -3.6299  -11.8349 O   0  0  0  0  0  0  0  0  0  0  0  0
    2.9691   -4.4740  -11.6655 O   0  0  0  0  0  0  0  0  0  0  0  0
    2.4516    0.3818  -10.3200 O   0  0  0  0  0  0  0  0  0  0  0  0
    1.4939   -5.7335   -4.6772 C   0  0  0  0  0  0  0  0  0  0  0  0
    2.5380   -6.5606   -4.2627 C   0  0  0  0  0  0  0  0  0  0  0  0
    2.2916   -7.6785   -3.5695 N   0  3  0  0  0  0  0  0  0  0  0  0
    3.3189   -8.4817   -3.2293 F   0  0  0  0  0  0  0  0  0  0  0  0
    1.0726   -8.0319   -3.2037 N   0  0  0  0  0  0  0  0  0  0  0  0
    0.0260   -7.2750   -3.5490 C   0  0  0  0  0  0  0  0  0  0  0  0
    0.1755   -6.1116   -4.3290 C   0  0  0  0  0  0  0  0  0  0  0  0
   -0.9956   -5.4074   -4.7044 C   0  0  0  0  0  0  0  0  0  0  0  0
   -2.2674   -5.8157   -4.2644 C   0  0  0  0  0  0  0  0  0  0  0  0
   -3.4595   -5.0800   -4.6810 C   0  0  0  0  0  0  0  0  0  0  0  0
   -3.4538   -4.3249   -5.6344 O   0  0  0  0  0  0  0  0  0  0  0  0
   -4.6972   -5.2836   -3.8458 C   0  0  0  0  0  0  0  0  0  0  0  0
   -5.5582   -4.4263   -3.7011 O   0  0  0  0  0  0  0  0  0  0  0  0
   -4.7631   -6.5455   -3.0215 C   0  0  1  0  0  0  0  0  0  0  0  0
   -3.5957   -7.3609   -2.9217 O   0  0  0  0  0  0  0  0  0  0  0  0
   -2.4117   -6.9146   -3.4399 C   0  0  0  0  0  0  0  0  0  0  0  0
   -1.2575   -7.6393   -3.1204 C   0  0  0  0  0  0  0  0  0  0  0  0
   -1.3880   -8.7331   -2.3520 F   0  0  0  0  0  0  0  0  0  0  0  0
   -5.2722   -6.1233   -1.6589 C   0  0  1  0  0  0  0  0  0  0  0  0
   -6.5771   -5.5015   -1.5728 N   0  3  0  0  0  0  0  0  0  0  0  0
   -7.5706   -5.0631   -1.4678 N   0  0  0  0  0  0  0  0  0  0  0  0
   -4.7231   -6.7698   -0.5032 O   0  0  0  0  0  0  0  0  0  0  0  0
   -4.3275   -5.5099   -0.7540 C   0  0  0  0  0  0  0  0  0  0  0  0
   -3.2427   -5.0424   -1.0279 O   0  0  0  0  0  0  0  0  0  0  0  0
    0.1575   -1.5105   -3.3379 C   0  0  0  0  0  0  0  0  0  0  0  0
   -0.5887   -2.2281   -3.9923 O   0  0  0  0  0  0  0  0  0  0  0  0
   -0.2466   -0.1363   -2.8953 C   0  0  0  0  0  0  0  0  0  0  0  0
   -1.4235    0.0759   -2.6557 O   0  0  0  0  0  0  0  0  0  0  0  0
    0.8179    0.9265   -2.7214 C   0  0  0  0  0  0  0  0  0  0  0  0
    0.5203    2.0802   -2.4682 O   0  0  0  0  0  0  0  0  0  0  0  0
  1  2  1  0  0  0  0
  2  3  2  0  0  0  0
  3  4  1  0  0  0  0
  3 54  1  0  0  0  0
  4  5  1  0  0  0  0
  5  6  1  6  0  0  0
  5 50  1  0  0  0  0
  6  7  1  0  0  0  0
  7  8  2  0  0  0  0
  7 12  1  0  0  0  0
  8  9  1  0  0  0  0
  8 26  1  0  0  0  0
  9 10  1  0  0  0  0
 10 11  2  0  0  0  0
 10 21  1  0  0  0  0
 11 12  1  0  0  0  0
 11 13  1  0  0  0  0
 13 14  1  0  0  0  0
 13 19  1  0  0  0  0
 14 15  1  0  0  0  0
 15 16  2  0  0  0  0
 15 17  1  0  0  0  0
 17 18  1  0  0  0  0
 18 19  1  0  0  0  0
 18 25  1  0  0  0  0
 19 20  2  0  0  0  0
 20 21  1  0  0  0  0
 20 22  1  0  0  0  0
 22 23  1  0  0  0  0
 22 24  1  0  0  0  0
 23 24  1  0  0  0  0
 26 27  2  0  0  0  0
 26 32  1  0  0  0  0
 27 28  1  0  0  0  0
 28 29  1  0  0  0  0
 28 30  2  0  0  0  0
 30 31  1  0  0  0  0
 31 32  2  0  0  0  0
 31 42  1  0  0  0  0
 32 33  1  0  0  0  0
 33 34  2  0  0  0  0
 34 35  1  0  0  0  0
 34 41  1  0  0  0  0
 35 36  2  0  0  0  0
 35 37  1  0  0  0  0
 37 38  2  0  0  0  0
 39 37  1  6  0  0  0
 39 40  1  0  0  0  0
 39 44  1  0  0  0  0
 40 41  1  0  0  0  0
 41 42  2  0  0  0  0
 42 43  1  0  0  0  0
 44 45  1  1  0  0  0
 44 47  1  0  0  0  0
 44 48  1  0  0  0  0
 45 46  3  0  0  0  0
 47 48  1  0  0  0  0
 48 49  2  0  0  0  0
 50 51  2  0  0  0  0
 50 52  1  0  0  0  0
 52 53  2  0  0  0  0
 52 54  1  0  0  0  0
 54 55  2  0  0  0  0
M  CHG  3  21   1  28   1  45   1
M  END
$$$$