
 OpenBabel11272002083D

 54 62  0  0  1  0  0  0  0  0999 V2000
    1.3054    5.9514   -6.7368 F   0  0  0  0  0  0  0  0  0  0  0  0
    0.5006    4.8830   -6.5756 C   0  0  0  0  0  0  0  0  0  0  0  0
    0.5790    4.1111   -5.4905 C   0  0  0  0  0  0  0  0  0  0  0  0
    1.5009    4.3771   -4.4971 O   0  0  0  0  0  0  0  0  0  0  0  0
    1.1385    3.9119   -3.1970 C   0  0  2  0  0  0  0  0  0  0  0  0
    2.1567    4.2610   -2.2293 O   0  0  0  0  0  0  0  0  0  0  0  0
    2.4927    5.6075   -2.1426 C   0  0  0  0  0  0  0  0  0  0  0  0
    3.7362    6.0398   -1.8139 C   0  0  0  0  0  0  0  0  0  0  0  0
    4.0091    7.4054   -1.6399 O   0  0  0  0  0  0  0  0  0  0  0  0
    3.0060    8.3497   -1.7616 C   0  0  0  0  0  0  0  0  0  0  0  0
    1.7527    8.0046   -2.0945 C   0  0  0  0  0  0  0  0  0  0  0  0
    1.3694    6.5889   -2.3474 C   0  0  0  0  0  0  0  0  0  0  0  0
    0.6674    9.0167   -2.2824 C   0  0  3  0  0  0  0  0  0  0  0  0
   -0.4015    8.7108   -1.4049 O   0  0  0  0  0  0  0  0  0  0  0  0
   -1.5042    9.4926   -1.5732 C   0  0  0  0  0  0  0  0  0  0  0  0
   -2.6142    9.1408   -1.2148 O   0  0  0  0  0  0  0  0  0  0  0  0
   -1.2623   10.6611   -2.2230 O   0  0  0  0  0  0  0  0  0  0  0  0
   -0.0373   11.3219   -1.9308 C   0  0  3  0  0  0  0  0  0  0  0  0
    1.1185   10.3800   -1.9251 C   0  0  0  0  0  0  0  0  0  0  0  0
    2.4010   10.6664   -1.5998 C   0  0  0  0  0  0  0  0  0  0  0  0
    3.3531    9.6589   -1.5440 O   0  3  0  0  0  0  0  0  0  0  0  0
    2.8756   12.0259   -1.2600 C   0  0  0  0  0  0  0  0  0  0  0  0
    2.8582   12.5002    0.0912 O   0  0  0  0  0  0  0  0  0  0  0  0
    4.1143   12.2085   -0.5520 O   0  0  0  0  0  0  0  0  0  0  0  0
    0.2303   12.2469   -2.9651 O   0  0  0  0  0  0  0  0  0  0  0  0
    4.9388    5.2030   -1.5088 C   0  0  0  0  0  0  0  0  0  0  0  0
    5.6797    5.7130   -0.4889 N   0  0  0  0  0  0  0  0  0  0  0  0
    6.7666    5.0189   -0.0917 C   0  0  0  0  0  0  0  0  0  0  0  0
    7.5089    5.5533    0.8878 F   0  0  0  0  0  0  0  0  0  0  0  0
    7.1658    3.8198   -0.6423 C   0  0  0  0  0  0  0  0  0  0  0  0
    6.4391    3.3042   -1.7187 C   0  0  0  0  0  0  0  0  0  0  0  0
    5.3292    4.0315   -2.2072 C   0  0  0  0  0  0  0  0  0  0  0  0
    4.7138    3.5468   -3.3778 C   0  0  0  0  0  0  0  0  0  0  0  0
    5.0650    2.3208   -3.9488 C   0  0  0  0  0  0  0  0  0  0  0  0
    4.2991    1.8205   -5.0919 C   0  0  0  0  0  0  0  0  0  0  0  0
    3.3034    2.3999   -5.5022 O   0  0  0  0  0  0  0  0  0  0  0  0
    4.7208    0.4968   -5.6711 C   0  0  0  0  0  0  0  0  0  0  0  0
    4.2680    0.1165   -6.7404 O   0  0  0  0  0  0  0  0  0  0  0  0
    5.5562   -0.3476   -4.7401 C   0  0  1  0  0  0  0  0  0  0  0  0
    6.5176    0.3874   -3.9650 O   0  0  0  0  0  0  0  0  0  0  0  0
    6.1039    1.5724   -3.4304 C   0  0  0  0  0  0  0  0  0  0  0  0
    6.8057    2.0893   -2.3386 C   0  0  0  0  0  0  0  0  0  0  0  0
    7.8582    1.4060   -1.8599 F   0  0  0  0  0  0  0  0  0  0  0  0
    4.7171   -1.2190   -3.8519 C   0  0  1  0  0  0  0  0  0  0  0  0
    5.4432   -2.0150   -2.8867 O   0  0  0  0  0  0  0  0  0  0  0  0
    3.5137   -0.6181   -3.3795 O   0  0  0  0  0  0  0  0  0  0  0  0
    3.3699   -1.7028   -4.1733 C   0  0  0  0  0  0  0  0  0  0  0  0
    2.8565   -2.7716   -3.9287 O   0  0  0  0  0  0  0  0  0  0  0  0
    0.8979    2.4105   -3.1751 C   0  0  0  0  0  0  0  0  0  0  0  0
    1.2627    1.6454   -2.2957 O   0  0  0  0  0  0  0  0  0  0  0  0
    0.0570    1.9434   -4.3407 C   0  0  0  0  0  0  0  0  0  0  0  0
   -0.3073    0.7825   -4.4198 O   0  0  0  0  0  0  0  0  0  0  0  0
   -0.3439    2.9529   -5.3966 C   0  0  0  0  0  0  0  0  0  0  0  0
   -1.3785    2.8565   -6.0326 O   0  0  0  0  0  0  0  0  0  0  0  0
  1  2  1  0  0  0  0
  2  3  2  0  0  0  0
  3  4  1  0  0  0  0
  3 53  1  0  0  0  0
  4  5  1  0  0  0  0
  5  6  1  1  0  0  0
  5 49  1  0  0  0  0
  6  7  1  0  0  0  0
  7  8  2  0  0  0  0
  7 12  1  0  0  0  0
  8  9  1  0  0  0  0
  8 26  1  0  0  0  0
  9 10  1  0  0  0  0
 10 11  2  0  0  0  0
 10 21  1  0  0  0  0
 11 12  1  0  0  0  0
 11 13  1  0  0  0  0
 13 14  1  0  0  0  0
 13 19  1  0  0  0  0
 14 15  1  0  0  0  0
 15 16  2  0  0  0  0
 15 17  1  0  0  0  0
 17 18  1  0  0  0  0
 18 19  1  0  0  0  0
 18 25  1  0  0  0  0
 19 20  2  0  0  0  0
 20 21  1  0  0  0  0
 20 22  1  0  0  0  0
 22 23  1  0  0  0  0
 22 24  1  0  0  0  0
 23 24  1  0  0  0  0
 26 27  2  0  0  0  0
 26 32  1  0  0  0  0
 27 28  1  0  0  0  0
 28 29  1  0  0  0  0
 28 30  2  0  0  0  0
 30 31  1  0  0  0  0
 31 32  2  0  0  0  0
 31 42  1  0  0  0  0
 32 33  1  0  0  0  0
 33 34  2  0  0  0  0
 34 35  1  0  0  0  0
 34 41  1  0  0  0  0
 35 36  2  0  0  0  0
 35 37  1  0  0  0  0
 37 38  2  0  0  0  0
 39 37  1  1  0  0  0
 39 40  1  0  0  0  0
 39 44  1  0  0  0  0
 40 41  1  0  0  0  0
 41 42  2  0  0  0  0
 42 43  1  0  0  0  0
 44 45  1  1  0  0  0
 44 46  1  0  0  0  0
 44 47  1  0  0  0  0
 46 47  1  0  0  0  0
 47 48  2  0  0  0  0
 49 50  2  0  0  0  0
 49 51  1  0  0  0  0
 51 52  2  0  0  0  0
 51 53  1  0  0  0  0
 53 54  2  0  0  0  0
M  CHG  1  21   1
M  END
$$$$