
 OpenBabel09222006173D

 50 58  0  0  1  0  0  0  0  0999 V2000
    2.0494    0.3051    0.6053 O   0  0  0  0  0  0  0  0  0  0  0  0
    2.9853    0.0178   -0.1334 C   0  0  0  0  0  0  0  0  0  0  0  0
    3.2736   -1.2682   -0.4451 N   0  0  0  0  0  0  0  0  0  0  0  0
    4.2035   -1.6688   -1.4757 C   0  0  0  0  0  0  0  0  0  0  0  0
    5.1483   -0.5839   -1.8586 C   0  0  0  0  0  0  0  0  0  0  0  0
    4.9180    0.7226   -1.4522 C   0  0  0  0  0  0  0  0  0  0  0  0
    3.7991    0.9785   -0.6478 N   0  0  0  0  0  0  0  0  0  0  0  0
    5.7883    1.7490   -1.8378 C   0  0  0  0  0  0  0  0  0  0  0  0
    5.5572    3.1707   -1.4526 C   0  0  0  0  0  0  0  0  0  0  0  0
    6.6190    4.1313   -1.9179 C   0  0  0  0  0  0  0  0  0  0  0  0
    7.6881    3.6647   -2.6075 C   0  0  0  0  0  0  0  0  0  0  0  0
    7.8269    2.3338   -2.9960 O   0  0  0  0  0  0  0  0  0  0  0  0
    6.8798    1.4073   -2.6217 C   0  0  0  0  0  0  0  0  0  0  0  0
    7.1194    0.1498   -3.0559 N   0  0  0  0  0  0  0  0  0  0  0  0
    6.2451   -0.7919   -2.6673 C   0  0  0  0  0  0  0  0  0  0  0  0
    6.5299   -2.0259   -3.1535 O   0  0  0  0  0  0  0  0  0  0  0  0
    8.8227    4.4890   -3.0946 C   0  0  0  0  0  0  0  0  0  0  0  0
    8.5894    5.0870   -4.2925 N   0  0  0  0  0  0  0  0  0  0  0  0
    9.5979    5.7866   -4.8521 C   0  0  0  0  0  0  0  0  0  0  0  0
   10.8483    5.9324   -4.2830 C   0  0  0  0  0  0  0  0  0  0  0  0
   11.0986    5.3252   -3.0545 C   0  0  0  0  0  0  0  0  0  0  0  0
   10.0786    4.5620   -2.4268 C   0  0  0  0  0  0  0  0  0  0  0  0
   10.3985    3.9454   -1.1909 C   0  0  0  0  0  0  0  0  0  0  0  0
   11.6422    4.1656   -0.5771 C   0  0  0  0  0  0  0  0  0  0  0  0
   12.6067    4.9566   -1.1897 C   0  0  0  0  0  0  0  0  0  0  0  0
   12.3545    5.4930   -2.4459 C   0  0  0  0  0  0  0  0  0  0  0  0
   13.8071    5.2815   -0.6186 O   0  0  0  0  0  0  0  0  0  0  0  0
   13.7690    5.3810    0.8116 C   0  0  2  0  0  0  0  0  0  0  0  0
   13.1225    4.1959    1.4898 C   0  0  0  0  0  0  0  0  0  0  0  0
   13.4710    3.7596    2.5789 O   0  0  0  0  0  0  0  0  0  0  0  0
   11.9332    3.6115    0.7518 C   0  0  0  0  0  0  0  0  0  0  0  0
   11.2448    2.7353    1.2505 O   0  0  0  0  0  0  0  0  0  0  0  0
   13.1455    6.6752    1.2417 C   0  0  1  0  0  0  0  0  0  0  0  0
   11.7620    6.8961    0.8711 O   0  0  0  0  0  0  0  0  0  0  0  0
   13.5121    7.1168    2.5501 O   0  0  0  0  0  0  0  0  0  0  0  0
   13.9161    7.8882    1.5208 C   0  0  0  0  0  0  0  0  0  0  0  0
   13.6618    9.0410    1.2662 O   0  0  0  0  0  0  0  0  0  0  0  0
    6.4779    5.4736   -1.5708 O   0  0  0  0  0  0  0  0  0  0  0  0
    5.1308    5.9849   -1.4105 C   0  0  1  0  0  0  0  0  0  0  0  0
    4.6562    5.7584   -0.0828 O   0  0  0  0  0  0  0  0  0  0  0  0
    3.5738    6.5159    0.3516 C   0  0  0  0  0  0  0  0  0  0  0  0
    3.3368    7.7546   -0.1146 C   0  0  0  0  0  0  0  0  0  0  0  0
    4.2308    8.3482   -1.1243 C   0  0  0  0  0  0  0  0  0  0  0  0
    4.1934    9.5537   -1.3336 O   0  0  0  0  0  0  0  0  0  0  0  0
    5.1132    7.4192   -1.9120 C   0  0  0  0  0  0  0  0  0  0  0  0
    5.6443    7.8161   -2.9416 O   0  0  0  0  0  0  0  0  0  0  0  0
    2.3234    8.5539    0.3866 O   0  0  0  0  0  0  0  0  0  0  0  0
    2.7446    5.9120    1.4298 C   0  0  0  0  0  0  0  0  0  0  0  0
    1.3268    6.1376    1.5487 O   0  0  0  0  0  0  0  0  0  0  0  0
    1.8206    4.8450    1.1561 O   0  0  0  0  0  0  0  0  0  0  0  0
  1  2  2  0  0  0  0
  2  3  1  0  0  0  0
  2  7  1  0  0  0  0
  3  4  1  0  0  0  0
  4  5  1  0  0  0  0
  5  6  2  0  0  0  0
  5 15  1  0  0  0  0
  6  7  1  0  0  0  0
  6  8  1  0  0  0  0
  8  9  1  0  0  0  0
  8 13  2  0  0  0  0
  9 10  1  0  0  0  0
 10 11  2  0  0  0  0
 10 38  1  0  0  0  0
 11 12  1  0  0  0  0
 11 17  1  0  0  0  0
 12 13  1  0  0  0  0
 13 14  1  0  0  0  0
 14 15  2  0  0  0  0
 15 16  1  0  0  0  0
 17 18  2  0  0  0  0
 17 22  1  0  0  0  0
 18 19  1  0  0  0  0
 19 20  2  0  0  0  0
 20 21  1  0  0  0  0
 21 22  2  0  0  0  0
 21 26  1  0  0  0  0
 22 23  1  0  0  0  0
 23 24  2  0  0  0  0
 24 25  1  0  0  0  0
 24 31  1  0  0  0  0
 25 26  2  0  0  0  0
 25 27  1  0  0  0  0
 28 27  1  6  0  0  0
 28 29  1  0  0  0  0
 28 33  1  0  0  0  0
 29 30  2  0  0  0  0
 29 31  1  0  0  0  0
 31 32  2  0  0  0  0
 33 34  1  6  0  0  0
 33 35  1  0  0  0  0
 33 36  1  0  0  0  0
 35 36  1  0  0  0  0
 36 37  2  0  0  0  0
 39 38  1  1  0  0  0
 39 40  1  0  0  0  0
 39 45  1  0  0  0  0
 40 41  1  0  0  0  0
 41 42  2  0  0  0  0
 41 48  1  0  0  0  0
 42 43  1  0  0  0  0
 42 47  1  0  0  0  0
 43 44  2  0  0  0  0
 43 45  1  0  0  0  0
 45 46  2  0  0  0  0
 48 49  1  0  0  0  0
 48 50  1  0  0  0  0
 49 50  1  0  0  0  0
M  END
$$$$