
 OpenBabel11232002053D

 52 61  0  0  1  0  0  0  0  0999 V2000
   16.6282    2.2538   -5.0019 O   0  0  0  0  0  0  0  0  0  0  0  0
   16.6330    2.0019   -3.6512 C   0  0  0  0  0  0  0  0  0  0  0  0
   15.6035    1.4317   -3.0143 C   0  0  0  0  0  0  0  0  0  0  0  0
   14.4414    1.0992   -3.6824 O   0  0  0  0  0  0  0  0  0  0  0  0
   13.9089   -0.1661   -3.2928 C   0  0  2  0  0  0  0  0  0  0  0  0
   12.7735   -0.5344   -4.1036 O   0  0  0  0  0  0  0  0  0  0  0  0
   12.9753   -0.7895   -5.4519 C   0  0  0  0  0  0  0  0  0  0  0  0
   12.1830   -1.6441   -6.1415 C   0  0  0  0  0  0  0  0  0  0  0  0
   12.3648   -1.8304   -7.5161 O   0  0  0  0  0  0  0  0  0  0  0  0
   13.1720   -0.9950   -8.2601 C   0  0  0  0  0  0  0  0  0  0  0  0
   14.0334   -0.1614   -7.6589 C   0  0  0  0  0  0  0  0  0  0  0  0
   14.0469    0.0045   -6.1705 C   0  0  0  0  0  0  0  0  0  0  0  0
   14.9993    0.6789   -8.4359 C   0  0  3  0  0  0  0  0  0  0  0  0
   16.3134    0.2820   -8.0764 O   0  0  0  0  0  0  0  0  0  0  0  0
   17.3104    1.0138   -8.6438 C   0  0  0  0  0  0  0  0  0  0  0  0
   18.4350    1.0594   -8.1750 O   0  0  0  0  0  0  0  0  0  0  0  0
   16.9330    1.7219   -9.7392 O   0  0  0  0  0  0  0  0  0  0  0  0
   15.9876    1.1301  -10.6221 C   0  0  3  0  0  0  0  0  0  0  0  0
   14.8891    0.4325   -9.8943 C   0  0  0  0  0  0  0  0  0  0  0  0
   13.9439   -0.3704  -10.4404 C   0  0  0  0  0  0  0  0  0  0  0  0
   13.0571   -1.0657   -9.6296 O   0  3  0  0  0  0  0  0  0  0  0  0
   13.8183   -0.6049  -11.8963 C   0  0  0  0  0  0  0  0  0  0  0  0
   14.5196   -1.6829  -12.5295 O   0  0  0  0  0  0  0  0  0  0  0  0
   13.0857   -1.7350  -12.3981 O   0  0  0  0  0  0  0  0  0  0  0  0
   15.3627    2.1595  -11.3622 O   0  0  0  0  0  0  0  0  0  0  0  0
   11.0891   -2.5183   -5.5917 C   0  0  0  0  0  0  0  0  0  0  0  0
   11.1617   -3.0230   -4.3004 C   0  0  0  0  0  0  0  0  0  0  0  0
   10.3195   -3.9586   -3.8212 N   0  0  0  0  0  0  0  0  0  0  0  0
    9.3613   -4.4895   -4.6325 N   0  0  0  0  0  0  0  0  0  0  0  0
    9.2156   -4.0673   -5.8890 C   0  0  0  0  0  0  0  0  0  0  0  0
   10.0297   -3.0317   -6.4021 C   0  0  0  0  0  0  0  0  0  0  0  0
    9.7656   -2.6036   -7.7198 C   0  0  0  0  0  0  0  0  0  0  0  0
    8.9064   -3.3063   -8.5524 C   0  0  0  0  0  0  0  0  0  0  0  0
    8.1303   -4.3371   -8.0494 C   0  0  0  0  0  0  0  0  0  0  0  0
    8.2726   -4.6911   -6.7105 C   0  0  0  0  0  0  0  0  0  0  0  0
    7.2578   -5.0556   -8.8309 O   0  0  0  0  0  0  0  0  0  0  0  0
    6.7908   -4.3223   -9.9929 C   0  0  1  0  0  0  0  0  0  0  0  0
    7.8403   -3.6825  -10.8041 C   0  0  0  0  0  0  0  0  0  0  0  0
    7.8874   -3.6347  -12.0953 N   0  0  0  0  0  0  0  0  0  0  0  0
    8.9248   -3.0364   -9.9917 C   0  0  0  0  0  0  0  0  0  0  0  0
    9.8661   -2.3286  -10.5698 N   0  0  0  0  0  0  0  0  0  0  0  0
    5.7168   -4.8747  -10.7079 O   0  0  0  0  0  0  0  0  0  0  0  0
    5.4461   -3.6577   -9.9389 C   0  0  1  0  0  0  0  0  0  0  0  0
    4.9570   -3.7926   -8.5521 O   0  0  0  0  0  0  0  0  0  0  0  0
    4.0736   -3.7547   -9.5189 C   0  0  0  0  0  0  0  0  0  0  0  0
    3.1059   -3.0420   -9.7094 O   0  0  0  0  0  0  0  0  0  0  0  0
   13.4579   -0.1076   -1.8379 C   0  0  0  0  0  0  0  0  0  0  0  0
   12.4923   -0.6960   -1.3745 O   0  0  0  0  0  0  0  0  0  0  0  0
   14.3800    0.7168   -0.9623 C   0  0  0  0  0  0  0  0  0  0  0  0
   14.0623    1.0213    0.1746 O   0  0  0  0  0  0  0  0  0  0  0  0
   15.6912    1.2001   -1.5485 C   0  0  0  0  0  0  0  0  0  0  0  0
   16.7038    1.3254   -0.8854 O   0  0  0  0  0  0  0  0  0  0  0  0
  1  2  1  0  0  0  0
  2  3  2  0  0  0  0
  3  4  1  0  0  0  0
  3 51  1  0  0  0  0
  4  5  1  0  0  0  0
  5  6  1  6  0  0  0
  5 47  1  0  0  0  0
  6  7  1  0  0  0  0
  7  8  2  0  0  0  0
  7 12  1  0  0  0  0
  8  9  1  0  0  0  0
  8 26  1  0  0  0  0
  9 10  1  0  0  0  0
 10 11  2  0  0  0  0
 10 21  1  0  0  0  0
 11 12  1  0  0  0  0
 11 13  1  0  0  0  0
 13 14  1  0  0  0  0
 13 19  1  0  0  0  0
 14 15  1  0  0  0  0
 15 16  2  0  0  0  0
 15 17  1  0  0  0  0
 17 18  1  0  0  0  0
 18 19  1  0  0  0  0
 18 25  1  0  0  0  0
 19 20  2  0  0  0  0
 20 21  1  0  0  0  0
 20 22  1  0  0  0  0
 22 23  1  0  0  0  0
 22 24  1  0  0  0  0
 23 24  1  0  0  0  0
 26 27  2  0  0  0  0
 26 31  1  0  0  0  0
 27 28  1  0  0  0  0
 28 29  2  0  0  0  0
 29 30  1  0  0  0  0
 30 31  2  0  0  0  0
 30 35  1  0  0  0  0
 31 32  1  0  0  0  0
 32 33  2  0  0  0  0
 33 34  1  0  0  0  0
 33 40  1  0  0  0  0
 34 35  2  0  0  0  0
 34 36  1  0  0  0  0
 37 36  1  1  0  0  0
 37 38  1  0  0  0  0
 37 42  1  0  0  0  0
 37 43  1  0  0  0  0
 38 39  2  0  0  0  0
 38 40  1  0  0  0  0
 40 41  2  0  0  0  0
 43 42  1  1  0  0  0
 43 44  1  0  0  0  0
 43 45  1  0  0  0  0
 44 45  1  0  0  0  0
 45 46  2  0  0  0  0
 47 48  2  0  0  0  0
 47 49  1  0  0  0  0
 49 50  2  0  0  0  0
 49 51  1  0  0  0  0
 51 52  2  0  0  0  0
M  CHG  1  21   1
M  END
$$$$