
 OpenBabel10232009373D

 76 88  0  0  1  0  0  0  0  0999 V2000
    1.5738   -0.1287   -3.4881 O   0  0  0  0  0  0  0  0  0  0  0  0
    1.6231   -0.0390   -2.0530 C   0  0  3  0  0  0  0  0  0  0  0  0
    2.5087    1.1294   -1.5744 C   0  0  3  0  0  0  0  0  0  0  0  0
    3.8801    0.9457   -2.0148 O   0  0  0  0  0  0  0  0  0  0  0  0
    4.4428   -0.2834   -1.7992 C   0  0  0  0  0  0  0  0  0  0  0  0
    3.6911   -1.3849   -1.4793 C   0  0  0  0  0  0  0  0  0  0  0  0
    2.1867   -1.3666   -1.5375 C   0  0  3  0  0  0  0  0  0  0  0  0
    1.7532   -2.4715   -2.3455 O   0  0  0  0  0  0  0  0  0  0  0  0
    4.3505   -2.5206   -0.9930 C   0  0  0  0  0  0  0  0  0  0  0  0
    5.7616   -2.5655   -0.7891 C   0  0  0  0  0  0  0  0  0  0  0  0
    6.5324   -1.5484   -1.3341 C   0  0  0  0  0  0  0  0  0  0  0  0
    5.8491   -0.3873   -1.8405 C   0  0  0  0  0  0  0  0  0  0  0  0
    6.5500    0.6836   -2.2137 F   0  0  0  0  0  0  0  0  0  0  0  0
    7.9423   -1.7301   -1.2806 C   0  0  0  0  0  0  0  0  0  0  0  0
    9.0423   -0.6651   -2.0717 Cl  0  0  0  0  0  0  0  0  0  0  0  0
    8.5372   -2.8119   -0.5658 C   0  0  0  0  0  0  0  0  0  0  0  0
    7.7986   -3.7353    0.1866 C   0  0  0  0  0  0  0  0  0  0  0  0
    6.3874   -3.5911    0.0149 C   0  0  0  0  0  0  0  0  0  0  0  0
    5.2808   -4.5563    0.9534 Cl  0  0  0  0  0  0  0  0  0  0  0  0
    8.5027   -4.7683    1.0969 C   0  0  0  0  0  0  0  0  0  0  0  0
    7.9640   -6.0750    1.3104 C   0  0  0  0  0  0  0  0  0  0  0  0
    8.4339   -7.0487    2.3197 C   0  0  0  0  0  0  0  0  0  0  0  0
    7.8583   -8.3477    2.9946 C   0  0  0  0  0  0  0  0  0  0  0  0
    8.6304   -9.0112    3.9653 C   0  0  0  0  0  0  0  0  0  0  0  0
    8.0643   -9.8878    4.9279 N   0  0  0  0  0  0  0  0  0  0  0  0
    9.9320   -8.5695    4.1352 C   0  0  0  0  0  0  0  0  0  0  0  0
   10.4503   -7.5091    3.5222 N   0  0  0  0  0  0  0  0  0  0  0  0
    9.7424   -6.7036    2.7379 N   0  3  0  0  0  0  0  0  0  0  0  0
   10.3651   -5.5170    2.4043 N   0  3  0  0  0  0  0  0  0  0  0  0
    9.7070   -4.4860    1.8079 C   0  0  0  0  0  0  0  0  0  0  0  0
   10.2695   -3.0976    2.0348 C   0  0  0  0  0  0  0  0  0  0  0  0
   12.0489   -5.3484    2.7902 Cl  0  0  0  0  0  0  0  0  0  0  0  0
    6.3664   -9.0035    2.8031 N   0  3  0  0  0  0  0  0  0  0  0  0
    6.0879  -10.3984    2.9013 N   0  3  0  0  0  0  0  0  0  0  0  0
    7.3255  -11.5862    2.6797 Cl  0  0  0  0  0  0  0  0  0  0  0  0
    4.7846  -10.9101    2.9274 C   0  0  0  0  0  0  0  0  0  0  0  0
    3.6034  -10.1316    2.7502 C   0  0  0  0  0  0  0  0  0  0  0  0
    3.8581   -8.7779    2.5744 C   0  0  0  0  0  0  0  0  0  0  0  0
    5.2336   -8.2221    2.6486 C   0  0  0  0  0  0  0  0  0  0  0  0
    5.3960   -6.8427    2.6091 N   0  0  0  0  0  0  0  0  0  0  0  0
    2.7972   -7.9998    2.3391 N   0  0  0  0  0  0  0  0  0  0  0  0
    1.5064   -8.3964    2.2365 N   0  3  0  0  0  0  0  0  0  0  0  0
    1.1352   -9.7100    2.4254 C   0  0  0  0  0  0  0  0  0  0  0  0
    2.2265  -10.5811    2.7073 N   0  3  0  0  0  0  0  0  0  0  0  0
    1.9367  -11.9061    2.9565 N   0  0  0  0  0  0  0  0  0  0  0  0
    0.6594  -12.3830    2.9384 N   0  3  0  0  0  0  0  0  0  0  0  0
    0.3738  -13.8311    3.2537 C   0  0  0  0  0  0  0  0  0  0  0  0
   -0.3592  -11.5690    2.6297 C   0  0  0  0  0  0  0  0  0  0  0  0
   -0.1337  -10.2617    2.3735 N   0  3  0  0  0  0  0  0  0  0  0  0
   -1.5608   -9.3907    1.9749 Cl  0  0  0  0  0  0  0  0  0  0  0  0
    0.4380   -7.1053    1.8809 Cl  0  0  0  0  0  0  0  0  0  0  0  0
    2.4204    1.4667   -0.0313 C   0  0  3  0  0  0  0  0  0  0  0  0
    0.9606    1.8321    0.3281 C   0  0  0  0  0  0  0  0  0  0  0  0
    0.7995    2.4357    1.7190 C   0  0  0  0  0  0  0  0  0  0  0  0
    1.6976    3.6166    1.9174 C   0  0  0  0  0  0  0  0  0  0  0  0
    2.9528    3.6426    1.3425 C   0  0  0  0  0  0  0  0  0  0  0  0
    3.4181    2.6135    0.3277 C   0  0  3  0  0  0  0  0  0  0  0  0
    4.7910    2.1022    0.8218 C   0  0  3  0  0  0  0  0  0  0  0  0
    4.6169    1.3507    1.9567 F   0  0  0  0  0  0  0  0  0  0  0  0
    5.8060    3.2233    1.1136 C   0  0  0  0  0  0  0  0  0  0  0  0
    5.1900    4.6266    0.9683 C   0  0  3  0  0  0  0  0  0  0  0  0
    3.8659    4.6561    1.7120 C   0  0  0  0  0  0  0  0  0  0  0  0
    3.5542    5.6161    2.7132 C   0  0  0  0  0  0  0  0  0  0  0  0
    2.1967    5.7275    3.1490 C   0  0  0  0  0  0  0  0  0  0  0  0
    1.3170    4.6863    2.7419 C   0  0  0  0  0  0  0  0  0  0  0  0
    1.6378    6.8566    3.9830 C   0  0  0  0  0  0  0  0  0  0  0  0
    2.1343    8.1739    3.8963 C   0  0  0  0  0  0  0  0  0  0  0  0
    1.6566    9.2193    4.7012 C   0  0  0  0  0  0  0  0  0  0  0  0
    0.5846    9.0093    5.5549 C   0  0  0  0  0  0  0  0  0  0  0  0
    0.0091    7.7484    5.6139 C   0  0  0  0  0  0  0  0  0  0  0  0
    0.5457    6.6940    4.8655 C   0  0  0  0  0  0  0  0  0  0  0  0
   -0.0407    5.4958    5.0269 F   0  0  0  0  0  0  0  0  0  0  0  0
    4.7082    6.4507    3.2782 C   0  0  3  0  0  0  0  0  0  0  0  0
    6.1092    5.9961    2.8378 C   0  0  0  0  0  0  0  0  0  0  0  0
    6.1430    5.7540    1.3446 C   0  0  0  0  0  0  0  0  0  0  0  0
    4.7298    6.3920    5.0733 Cl  0  0  0  0  0  0  0  0  0  0  0  0
  1  2  1  0  0  0  0
  2  3  1  0  0  0  0
  2  7  1  0  0  0  0
  3  4  1  0  0  0  0
  3 52  1  0  0  0  0
  4  5  1  0  0  0  0
  5  6  2  0  0  0  0
  5 12  1  0  0  0  0
  6  7  1  0  0  0  0
  6  9  1  0  0  0  0
  7  8  1  0  0  0  0
  9 10  2  0  0  0  0
 10 11  1  0  0  0  0
 10 18  1  0  0  0  0
 11 12  2  0  0  0  0
 11 14  1  0  0  0  0
 12 13  1  0  0  0  0
 14 15  1  0  0  0  0
 14 16  2  0  0  0  0
 16 17  1  0  0  0  0
 17 18  2  0  0  0  0
 17 20  1  0  0  0  0
 18 19  1  0  0  0  0
 20 21  2  0  0  0  0
 20 30  1  0  0  0  0
 21 22  1  0  0  0  0
 22 23  2  0  0  0  0
 22 28  1  0  0  0  0
 23 24  1  0  0  0  0
 23 33  1  0  0  0  0
 24 25  1  0  0  0  0
 24 26  2  0  0  0  0
 26 27  1  0  0  0  0
 27 28  2  0  0  0  0
 28 29  1  0  0  0  0
 29 30  2  0  0  0  0
 29 32  1  0  0  0  0
 30 31  1  0  0  0  0
 33 34  2  0  0  0  0
 33 39  1  0  0  0  0
 34 35  1  0  0  0  0
 34 36  1  0  0  0  0
 36 37  2  0  0  0  0
 37 38  1  0  0  0  0
 37 44  1  0  0  0  0
 38 39  2  0  0  0  0
 38 41  1  0  0  0  0
 39 40  1  0  0  0  0
 41 42  2  0  0  0  0
 42 43  1  0  0  0  0
 42 51  1  0  0  0  0
 43 44  2  0  0  0  0
 43 49  1  0  0  0  0
 44 45  1  0  0  0  0
 45 46  2  0  0  0  0
 46 47  1  0  0  0  0
 46 48  1  0  0  0  0
 48 49  2  0  0  0  0
 49 50  1  0  0  0  0
 52 53  1  0  0  0  0
 52 57  1  0  0  0  0
 53 54  1  0  0  0  0
 54 55  1  0  0  0  0
 55 56  2  0  0  0  0
 55 65  1  0  0  0  0
 56 57  1  0  0  0  0
 56 62  1  0  0  0  0
 57 58  1  0  0  0  0
 58 59  1  0  0  0  0
 58 60  1  0  0  0  0
 60 61  1  0  0  0  0
 61 62  1  0  0  0  0
 61 75  1  0  0  0  0
 62 63  2  0  0  0  0
 63 64  1  0  0  0  0
 63 73  1  0  0  0  0
 64 65  2  0  0  0  0
 64 66  1  0  0  0  0
 66 67  2  0  0  0  0
 66 71  1  0  0  0  0
 67 68  1  0  0  0  0
 68 69  2  0  0  0  0
 69 70  1  0  0  0  0
 70 71  2  0  0  0  0
 71 72  1  0  0  0  0
 73 74  1  0  0  0  0
 73 76  1  0  0  0  0
 74 75  1  0  0  0  0
M  CHG  8  28   1  29   1  33   1  34   1  42   1  44   1  46   1  49   1
M  END
$$$$