
 OpenBabel09252023053D

 48 55  0  0  1  0  0  0  0  0999 V2000
    6.5615   -7.5426    4.3352 O   0  0  0  0  0  0  0  0  0  0  0  0
    6.5335   -6.5035    5.2293 C   0  0  0  0  0  0  0  0  0  0  0  0
    5.7698   -5.4192    5.0548 C   0  0  0  0  0  0  0  0  0  0  0  0
    4.9741   -5.2675    3.9329 O   0  0  0  0  0  0  0  0  0  0  0  0
    3.6875   -4.7254    4.2399 C   0  0  2  0  0  0  0  0  0  0  0  0
    2.8230   -4.7478    3.0935 O   0  0  0  0  0  0  0  0  0  0  0  0
    2.5645   -5.9989    2.5398 C   0  0  0  0  0  0  0  0  0  0  0  0
    2.3120   -6.1462    1.2191 C   0  0  0  0  0  0  0  0  0  0  0  0
    2.0756   -7.3855    0.6213 O   0  0  0  0  0  0  0  0  0  0  0  0
    2.1317   -8.5353    1.3936 C   0  0  0  0  0  0  0  0  0  0  0  0
    2.2772   -8.4729    2.7246 C   0  0  0  0  0  0  0  0  0  0  0  0
    2.4738   -7.1946    3.4593 C   0  0  0  0  0  0  0  0  0  0  0  0
    2.3219   -9.7465    3.4886 C   0  0  0  0  0  0  0  0  0  0  0  0
    2.3989   -9.7337    4.7779 N   0  0  0  0  0  0  0  0  0  0  0  0
    2.4520  -10.9333    5.4606 C   0  0  0  0  0  0  0  0  0  0  0  0
    2.4554  -10.8985    6.6814 O   0  0  0  0  0  0  0  0  0  0  0  0
    2.5132  -12.1626    4.8314 N   0  0  0  0  0  0  0  0  0  0  0  0
    2.4314  -12.2037    3.5457 C   0  0  0  0  0  0  0  0  0  0  0  0
    2.2965  -11.0061    2.7156 C   0  0  0  0  0  0  0  0  0  0  0  0
    2.1823  -10.9682    1.3726 C   0  0  0  0  0  0  0  0  0  0  0  0
    2.0564   -9.7393    0.7365 N   0  0  0  0  0  0  0  0  0  0  0  0
    2.1933  -12.1616    0.4961 C   0  0  0  0  0  0  0  0  0  0  0  0
    1.2063  -13.1989    0.6096 O   0  0  0  0  0  0  0  0  0  0  0  0
    1.2245  -12.3444   -0.5495 O   0  0  0  0  0  0  0  0  0  0  0  0
    2.3424   -5.0422    0.2401 C   0  0  0  0  0  0  0  0  0  0  0  0
    3.5839   -4.9048   -0.2831 N   0  0  0  0  0  0  0  0  0  0  0  0
    3.7030   -4.0436   -1.2840 C   0  0  0  0  0  0  0  0  0  0  0  0
    2.7075   -3.3357   -1.8070 N   0  0  0  0  0  0  0  0  0  0  0  0
    1.4760   -3.4753   -1.2885 C   0  0  0  0  0  0  0  0  0  0  0  0
    1.1871   -4.3290   -0.2127 C   0  0  0  0  0  0  0  0  0  0  0  0
   -0.1911   -4.3758    0.2627 C   0  0  0  0  0  0  0  0  0  0  0  0
   -0.5047   -5.0745    1.5666 C   0  0  0  0  0  0  0  0  0  0  0  0
   -1.2537   -3.6908   -0.4396 C   0  0  0  0  0  0  0  0  0  0  0  0
   -2.6539   -3.7694   -0.2128 C   0  0  0  0  0  0  0  0  0  0  0  0
   -3.2444   -4.7043    0.6046 O   0  0  0  0  0  0  0  0  0  0  0  0
   -3.5271   -2.9317   -0.8896 C   0  0  0  0  0  0  0  0  0  0  0  0
   -4.8718   -2.9903   -0.6453 O   0  0  0  0  0  0  0  0  0  0  0  0
   -3.1129   -2.0757   -1.8242 N   0  0  0  0  0  0  0  0  0  0  0  0
   -1.7858   -2.0461   -2.1271 N   0  0  0  0  0  0  0  0  0  0  0  0
   -0.8914   -2.8164   -1.4720 C   0  0  0  0  0  0  0  0  0  0  0  0
    0.4401   -2.7321   -1.8583 C   0  0  0  0  0  0  0  0  0  0  0  0
    0.7473   -1.8650   -2.9028 O   0  0  0  0  0  0  0  0  0  0  0  0
    3.8145   -3.3010    4.7715 C   0  0  0  0  0  0  0  0  0  0  0  0
    2.9974   -2.4035    4.6250 O   0  0  0  0  0  0  0  0  0  0  0  0
    5.0307   -3.1148    5.6532 C   0  0  0  0  0  0  0  0  0  0  0  0
    5.4006   -2.0045    5.9978 O   0  0  0  0  0  0  0  0  0  0  0  0
    5.8000   -4.3460    6.0827 C   0  0  0  0  0  0  0  0  0  0  0  0
    6.3250   -4.4407    7.1776 O   0  0  0  0  0  0  0  0  0  0  0  0
  1  2  1  0  0  0  0
  2  3  2  0  0  0  0
  3  4  1  0  0  0  0
  3 47  1  0  0  0  0
  4  5  1  0  0  0  0
  5  6  1  6  0  0  0
  5 43  1  0  0  0  0
  6  7  1  0  0  0  0
  7  8  2  0  0  0  0
  7 12  1  0  0  0  0
  8  9  1  0  0  0  0
  8 25  1  0  0  0  0
  9 10  1  0  0  0  0
 10 11  2  0  0  0  0
 10 21  1  0  0  0  0
 11 12  1  0  0  0  0
 11 13  1  0  0  0  0
 13 14  2  0  0  0  0
 13 19  1  0  0  0  0
 14 15  1  0  0  0  0
 15 16  2  0  0  0  0
 15 17  1  0  0  0  0
 17 18  2  0  0  0  0
 18 19  1  0  0  0  0
 19 20  2  0  0  0  0
 20 21  1  0  0  0  0
 20 22  1  0  0  0  0
 22 23  1  0  0  0  0
 22 24  1  0  0  0  0
 23 24  1  0  0  0  0
 25 26  2  0  0  0  0
 25 30  1  0  0  0  0
 26 27  1  0  0  0  0
 27 28  2  0  0  0  0
 28 29  1  0  0  0  0
 29 30  2  0  0  0  0
 29 41  1  0  0  0  0
 30 31  1  0  0  0  0
 31 32  1  0  0  0  0
 31 33  2  0  0  0  0
 33 34  1  0  0  0  0
 33 40  1  0  0  0  0
 34 35  1  0  0  0  0
 34 36  2  0  0  0  0
 36 37  1  0  0  0  0
 36 38  1  0  0  0  0
 38 39  2  0  0  0  0
 39 40  1  0  0  0  0
 40 41  2  0  0  0  0
 41 42  1  0  0  0  0
 43 44  2  0  0  0  0
 43 45  1  0  0  0  0
 45 46  2  0  0  0  0
 45 47  1  0  0  0  0
 47 48  2  0  0  0  0
M  END
$$$$