
 OpenBabel11232001393D

 52 60  0  0  1  0  0  0  0  0999 V2000
    7.2108   -4.9887   -4.2379 O   0  0  0  0  0  0  0  0  0  0  0  0
    7.0544   -5.0455   -2.8764 C   0  0  0  0  0  0  0  0  0  0  0  0
    6.0126   -4.4846   -2.2523 C   0  0  0  0  0  0  0  0  0  0  0  0
    5.0586   -3.7845   -2.9722 O   0  0  0  0  0  0  0  0  0  0  0  0
    3.7350   -4.0020   -2.4967 C   0  0  2  0  0  0  0  0  0  0  0  0
    2.7681   -3.3694   -3.3512 O   0  0  0  0  0  0  0  0  0  0  0  0
    2.7273   -3.8132   -4.6661 C   0  0  0  0  0  0  0  0  0  0  0  0
    2.3643   -2.9733   -5.6566 C   0  0  0  0  0  0  0  0  0  0  0  0
    2.2108   -3.3663   -6.9792 O   0  0  0  0  0  0  0  0  0  0  0  0
    2.3146   -4.7162   -7.2953 C   0  0  0  0  0  0  0  0  0  0  0  0
    2.6623   -5.6289   -6.3734 C   0  0  0  0  0  0  0  0  0  0  0  0
    2.9806   -5.2752   -4.9602 C   0  0  0  0  0  0  0  0  0  0  0  0
    2.7180   -7.0597   -6.7867 C   0  0  0  0  0  0  0  0  0  0  0  0
    2.9990   -7.9858   -5.9244 N   0  0  0  0  0  0  0  0  0  0  0  0
    3.0225   -9.2694   -6.3926 C   0  0  0  0  0  0  0  0  0  0  0  0
    3.2612  -10.1596   -5.5038 N   0  0  0  0  0  0  0  0  0  0  0  0
    2.8206   -9.6978   -7.6701 N   0  0  0  0  0  0  0  0  0  0  0  0
    2.5431   -8.7966   -8.5490 C   0  0  0  0  0  0  0  0  0  0  0  0
    2.4326   -7.3717   -8.2121 C   0  0  0  0  0  0  0  0  0  0  0  0
    2.0994   -6.3793   -9.0611 C   0  0  0  0  0  0  0  0  0  0  0  0
    2.0236   -5.0750   -8.5854 N   0  0  0  0  0  0  0  0  0  0  0  0
    1.7988   -6.5587  -10.5024 C   0  0  0  0  0  0  0  0  0  0  0  0
    1.6824   -5.4333  -11.3938 O   0  0  0  0  0  0  0  0  0  0  0  0
    2.7983   -6.3371  -11.5076 O   0  0  0  0  0  0  0  0  0  0  0  0
    2.0124   -1.5684   -5.4041 C   0  0  0  0  0  0  0  0  0  0  0  0
    0.6876   -1.2867   -5.1013 C   0  0  0  0  0  0  0  0  0  0  0  0
    0.3024   -0.0364   -4.8350 N   0  3  0  0  0  0  0  0  0  0  0  0
   -0.9921    0.2002   -4.5503 F   0  0  0  0  0  0  0  0  0  0  0  0
    1.1402    0.9868   -4.8418 N   0  0  0  0  0  0  0  0  0  0  0  0
    2.4332    0.7733   -5.1109 C   0  0  0  0  0  0  0  0  0  0  0  0
    2.9320   -0.5070   -5.4111 C   0  0  0  0  0  0  0  0  0  0  0  0
    4.3129   -0.6558   -5.6886 C   0  0  0  0  0  0  0  0  0  0  0  0
    5.1741    0.4456   -5.6360 C   0  0  0  0  0  0  0  0  0  0  0  0
    4.6834    1.6981   -5.3138 C   0  0  0  0  0  0  0  0  0  0  0  0
    3.3128    1.8524   -5.0824 C   0  0  0  0  0  0  0  0  0  0  0  0
    5.4507    2.8181   -5.1769 O   0  0  0  0  0  0  0  0  0  0  0  0
    6.8513    2.6267   -4.9370 C   0  0  2  0  0  0  0  0  0  0  0  0
    7.4990    1.4631   -5.6507 C   0  0  0  0  0  0  0  0  0  0  0  0
    8.7067    1.3873   -5.8423 O   0  0  0  0  0  0  0  0  0  0  0  0
    6.6022    0.2787   -5.9071 C   0  0  0  0  0  0  0  0  0  0  0  0
    7.0555   -0.7887   -6.2847 O   0  0  0  0  0  0  0  0  0  0  0  0
    7.2115    2.5652   -3.4685 C   0  0  1  0  0  0  0  0  0  0  0  0
    8.6190    2.4711   -3.1429 O   0  0  0  0  0  0  0  0  0  0  0  0
    6.4522    3.4440   -2.6184 O   0  0  0  0  0  0  0  0  0  0  0  0
    6.2919    2.1268   -2.4308 C   0  0  0  0  0  0  0  0  0  0  0  0
    5.3110    1.4134   -2.4677 O   0  0  0  0  0  0  0  0  0  0  0  0
    3.6181   -3.4081   -1.1072 C   0  0  0  0  0  0  0  0  0  0  0  0
    2.7678   -2.6098   -0.7408 O   0  0  0  0  0  0  0  0  0  0  0  0
    4.6813   -3.9399   -0.1757 C   0  0  0  0  0  0  0  0  0  0  0  0
    4.5284   -3.8616    1.0319 O   0  0  0  0  0  0  0  0  0  0  0  0
    5.9065   -4.6181   -0.7696 C   0  0  0  0  0  0  0  0  0  0  0  0
    6.6902   -5.2475   -0.0818 O   0  0  0  0  0  0  0  0  0  0  0  0
  1  2  1  0  0  0  0
  2  3  2  0  0  0  0
  3  4  1  0  0  0  0
  3 51  1  0  0  0  0
  4  5  1  0  0  0  0
  5  6  1  6  0  0  0
  5 47  1  0  0  0  0
  6  7  1  0  0  0  0
  7  8  2  0  0  0  0
  7 12  1  0  0  0  0
  8  9  1  0  0  0  0
  8 25  1  0  0  0  0
  9 10  1  0  0  0  0
 10 11  2  0  0  0  0
 10 21  1  0  0  0  0
 11 12  1  0  0  0  0
 11 13  1  0  0  0  0
 13 14  2  0  0  0  0
 13 19  1  0  0  0  0
 14 15  1  0  0  0  0
 15 16  2  0  0  0  0
 15 17  1  0  0  0  0
 17 18  2  0  0  0  0
 18 19  1  0  0  0  0
 19 20  2  0  0  0  0
 20 21  1  0  0  0  0
 20 22  1  0  0  0  0
 22 23  1  0  0  0  0
 22 24  1  0  0  0  0
 23 24  1  0  0  0  0
 25 26  2  0  0  0  0
 25 31  1  0  0  0  0
 26 27  1  0  0  0  0
 27 28  1  0  0  0  0
 27 29  2  0  0  0  0
 29 30  1  0  0  0  0
 30 31  2  0  0  0  0
 30 35  1  0  0  0  0
 31 32  1  0  0  0  0
 32 33  2  0  0  0  0
 33 34  1  0  0  0  0
 33 40  1  0  0  0  0
 34 35  2  0  0  0  0
 34 36  1  0  0  0  0
 37 36  1  1  0  0  0
 37 38  1  0  0  0  0
 37 42  1  0  0  0  0
 38 39  2  0  0  0  0
 38 40  1  0  0  0  0
 40 41  2  0  0  0  0
 42 43  1  1  0  0  0
 42 44  1  0  0  0  0
 42 45  1  0  0  0  0
 44 45  1  0  0  0  0
 45 46  2  0  0  0  0
 47 48  2  0  0  0  0
 47 49  1  0  0  0  0
 49 50  2  0  0  0  0
 49 51  1  0  0  0  0
 51 52  2  0  0  0  0
M  CHG  1  27   1
M  END
$$$$