
 OpenBabel11212015113D

 53 61  0  0  1  0  0  0  0  0999 V2000
   -1.1634    3.4568   -3.5441 O   0  0  0  0  0  0  0  0  0  0  0  0
   -0.2218    3.8421   -4.4588 C   0  0  0  0  0  0  0  0  0  0  0  0
    0.9865    4.3018   -4.1056 C   0  0  0  0  0  0  0  0  0  0  0  0
    1.3196    4.4321   -2.7668 O   0  0  0  0  0  0  0  0  0  0  0  0
    2.7042    4.3652   -2.4528 C   0  0  2  0  0  0  0  0  0  0  0  0
    2.9342    4.4678   -1.0200 O   0  0  0  0  0  0  0  0  0  0  0  0
    2.7306    5.6930   -0.3917 C   0  0  0  0  0  0  0  0  0  0  0  0
    3.4473    6.0506    0.6976 C   0  0  0  0  0  0  0  0  0  0  0  0
    3.3927    7.3354    1.2521 O   0  0  0  0  0  0  0  0  0  0  0  0
    2.5410    8.2954    0.6955 C   0  0  0  0  0  0  0  0  0  0  0  0
    1.6745    7.9694   -0.2788 C   0  0  0  0  0  0  0  0  0  0  0  0
    1.6564    6.6147   -0.9180 C   0  0  0  0  0  0  0  0  0  0  0  0
    0.6772    8.9514   -0.8229 C   0  0  3  0  0  0  0  0  0  0  0  0
   -0.6010    8.5119   -0.4048 O   0  0  0  0  0  0  0  0  0  0  0  0
   -1.6763    9.3122   -0.6327 C   0  0  0  0  0  0  0  0  0  0  0  0
   -2.8142    8.8998   -0.4814 O   0  0  0  0  0  0  0  0  0  0  0  0
   -1.4116   10.5900   -1.0010 O   0  0  0  0  0  0  0  0  0  0  0  0
   -0.1354   11.2106   -0.8866 C   0  0  3  0  0  0  0  0  0  0  0  0
    0.8655   10.3075   -0.2619 C   0  0  0  0  0  0  0  0  0  0  0  0
    1.7992   10.5933    0.6727 C   0  0  0  0  0  0  0  0  0  0  0  0
    2.6059    9.5819    1.1853 O   0  3  0  0  0  0  0  0  0  0  0  0
    2.0706   11.9540    1.1994 C   0  0  0  0  0  0  0  0  0  0  0  0
    3.1125   12.1607    2.1716 O   0  0  0  0  0  0  0  0  0  0  0  0
    3.2693   12.6497    0.8270 O   0  0  0  0  0  0  0  0  0  0  0  0
    0.3563   11.5052   -2.1766 O   0  0  0  0  0  0  0  0  0  0  0  0
    4.3362    5.1146    1.4296 C   0  0  0  0  0  0  0  0  0  0  0  0
    5.6181    4.8655    0.9416 C   0  0  0  0  0  0  0  0  0  0  0  0
    6.4456    4.0409    1.6073 N   0  3  0  0  0  0  0  0  0  0  0  0
    7.7335    3.8090    1.1394 O   0  0  0  0  0  0  0  0  0  0  0  0
    6.0990    3.4336    2.7256 N   0  0  0  0  0  0  0  0  0  0  0  0
    4.8845    3.6185    3.2388 C   0  0  0  0  0  0  0  0  0  0  0  0
    3.9375    4.4597    2.6241 C   0  0  0  0  0  0  0  0  0  0  0  0
    2.6677    4.5905    3.2436 C   0  0  0  0  0  0  0  0  0  0  0  0
    2.3755    3.9345    4.4531 C   0  0  0  0  0  0  0  0  0  0  0  0
    3.3220    3.1251    5.0512 C   0  0  0  0  0  0  0  0  0  0  0  0
    4.5591    2.9609    4.4250 C   0  0  0  0  0  0  0  0  0  0  0  0
    3.1531    2.4768    6.2401 O   0  0  0  0  0  0  0  0  0  0  0  0
    2.1242    2.9600    7.1194 C   0  0  2  0  0  0  0  0  0  0  0  0
    0.8609    3.4234    6.4287 C   0  0  0  0  0  0  0  0  0  0  0  0
   -0.2620    3.3154    6.8994 O   0  0  0  0  0  0  0  0  0  0  0  0
    1.0765    4.1184    5.1036 C   0  0  0  0  0  0  0  0  0  0  0  0
    0.2247    4.8294    4.5951 O   0  0  0  0  0  0  0  0  0  0  0  0
    2.6269    3.9924    8.1004 C   0  0  1  0  0  0  0  0  0  0  0  0
    1.6675    4.5252    9.0325 O   0  0  0  0  0  0  0  0  0  0  0  0
    3.9394    3.7474    8.6361 O   0  0  0  0  0  0  0  0  0  0  0  0
    3.7872    4.8309    7.8629 C   0  0  0  0  0  0  0  0  0  0  0  0
    4.3288    5.2003    6.8408 O   0  0  0  0  0  0  0  0  0  0  0  0
    3.5259    5.3603   -3.2677 C   0  0  0  0  0  0  0  0  0  0  0  0
    4.3301    6.1602   -2.8027 O   0  0  0  0  0  0  0  0  0  0  0  0
    3.2248    5.2939   -4.7403 C   0  0  0  0  0  0  0  0  0  0  0  0
    4.0629    5.6958   -5.5301 O   0  0  0  0  0  0  0  0  0  0  0  0
    1.9038    4.7217   -5.2053 C   0  0  0  0  0  0  0  0  0  0  0  0
    1.6343    4.6385   -6.3942 O   0  0  0  0  0  0  0  0  0  0  0  0
  1  2  1  0  0  0  0
  2  3  2  0  0  0  0
  3  4  1  0  0  0  0
  3 52  1  0  0  0  0
  4  5  1  0  0  0  0
  5  6  1  1  0  0  0
  5 48  1  0  0  0  0
  6  7  1  0  0  0  0
  7  8  2  0  0  0  0
  7 12  1  0  0  0  0
  8  9  1  0  0  0  0
  8 26  1  0  0  0  0
  9 10  1  0  0  0  0
 10 11  2  0  0  0  0
 10 21  1  0  0  0  0
 11 12  1  0  0  0  0
 11 13  1  0  0  0  0
 13 14  1  0  0  0  0
 13 19  1  0  0  0  0
 14 15  1  0  0  0  0
 15 16  2  0  0  0  0
 15 17  1  0  0  0  0
 17 18  1  0  0  0  0
 18 19  1  0  0  0  0
 18 25  1  0  0  0  0
 19 20  2  0  0  0  0
 20 21  1  0  0  0  0
 20 22  1  0  0  0  0
 22 23  1  0  0  0  0
 22 24  1  0  0  0  0
 23 24  1  0  0  0  0
 26 27  2  0  0  0  0
 26 32  1  0  0  0  0
 27 28  1  0  0  0  0
 28 29  1  0  0  0  0
 28 30  2  0  0  0  0
 30 31  1  0  0  0  0
 31 32  2  0  0  0  0
 31 36  1  0  0  0  0
 32 33  1  0  0  0  0
 33 34  2  0  0  0  0
 34 35  1  0  0  0  0
 34 41  1  0  0  0  0
 35 36  2  0  0  0  0
 35 37  1  0  0  0  0
 38 37  1  6  0  0  0
 38 39  1  0  0  0  0
 38 43  1  0  0  0  0
 39 40  2  0  0  0  0
 39 41  1  0  0  0  0
 41 42  2  0  0  0  0
 43 44  1  1  0  0  0
 43 45  1  0  0  0  0
 43 46  1  0  0  0  0
 45 46  1  0  0  0  0
 46 47  2  0  0  0  0
 48 49  2  0  0  0  0
 48 50  1  0  0  0  0
 50 51  2  0  0  0  0
 50 52  1  0  0  0  0
 52 53  2  0  0  0  0
M  CHG  2  21   1  28   1
M  END
$$$$