
 OpenBabel11222014313D

 54 62  0  0  1  0  0  0  0  0999 V2000
    3.7388   -0.4768    7.6424 O   0  0  0  0  0  0  0  0  0  0  0  0
    4.8192   -0.4581    6.7977 C   0  0  0  0  0  0  0  0  0  0  0  0
    4.7639   -0.9845    5.5699 C   0  0  0  0  0  0  0  0  0  0  0  0
    3.5916   -1.5800    5.1510 O   0  0  0  0  0  0  0  0  0  0  0  0
    3.3890   -1.8093    3.7749 C   0  0  2  0  0  0  0  0  0  0  0  0
    2.2686   -2.7165    3.5596 O   0  0  0  0  0  0  0  0  0  0  0  0
    2.3869   -4.0378    3.9850 C   0  0  0  0  0  0  0  0  0  0  0  0
    1.7997   -5.0664    3.3261 C   0  0  0  0  0  0  0  0  0  0  0  0
    1.9967   -6.4033    3.7233 O   0  0  0  0  0  0  0  0  0  0  0  0
    2.7562   -6.7092    4.8526 C   0  0  0  0  0  0  0  0  0  0  0  0
    3.2916   -5.7310    5.5971 C   0  0  0  0  0  0  0  0  0  0  0  0
    3.1387   -4.2897    5.2613 C   0  0  0  0  0  0  0  0  0  0  0  0
    4.1408   -6.0036    6.7989 C   0  0  3  0  0  0  0  0  0  0  0  0
    3.4590   -5.5368    7.9288 O   0  0  0  0  0  0  0  0  0  0  0  0
    4.0801   -5.6835    9.1231 C   0  0  0  0  0  0  0  0  0  0  0  0
    3.7561   -5.0209   10.1074 O   0  0  0  0  0  0  0  0  0  0  0  0
    5.0753   -6.5836    9.1613 O   0  0  0  0  0  0  0  0  0  0  0  0
    5.2257   -7.6266    8.1900 C   0  0  3  0  0  0  0  0  0  0  0  0
    4.3445   -7.4451    7.0137 C   0  0  0  0  0  0  0  0  0  0  0  0
    3.7857   -8.3959    6.2301 C   0  0  0  0  0  0  0  0  0  0  0  0
    2.9524   -8.0367    5.1766 O   0  3  0  0  0  0  0  0  0  0  0  0
    4.0040   -9.8447    6.4337 C   0  0  0  0  0  0  0  0  0  0  0  0
    3.1199  -10.6138    7.2560 O   0  0  0  0  0  0  0  0  0  0  0  0
    3.1263  -10.8077    5.8274 O   0  0  0  0  0  0  0  0  0  0  0  0
    6.5366   -7.5645    7.6616 O   0  0  0  0  0  0  0  0  0  0  0  0
    0.9165   -4.9044    2.1245 C   0  0  0  0  0  0  0  0  0  0  0  0
    1.1615   -3.8680    1.2234 C   0  0  0  0  0  0  0  0  0  0  0  0
    0.4157   -3.6989    0.1300 N   0  3  0  0  0  0  0  0  0  0  0  0
    0.6672   -2.6484   -0.6748 F   0  0  0  0  0  0  0  0  0  0  0  0
   -0.5386   -4.5363   -0.2099 N   0  0  0  0  0  0  0  0  0  0  0  0
   -0.8194   -5.5718    0.5833 C   0  0  0  0  0  0  0  0  0  0  0  0
   -0.1559   -5.7818    1.8077 C   0  0  0  0  0  0  0  0  0  0  0  0
   -0.6172   -6.8473    2.6281 C   0  0  0  0  0  0  0  0  0  0  0  0
   -1.6022   -7.7467    2.2015 C   0  0  0  0  0  0  0  0  0  0  0  0
   -2.0592   -8.8858    3.0344 C   0  0  0  0  0  0  0  0  0  0  0  0
   -1.3133   -9.4498    4.4279 S   0  0  0  0  0  0  0  0  0  0  0  0
   -3.1871   -9.6594    2.4216 C   0  0  0  0  0  0  0  0  0  0  0  0
   -4.5987   -9.9011    3.2763 S   0  0  0  0  0  0  0  0  0  0  0  0
   -3.0502   -9.8250    0.9282 C   0  0  1  0  0  0  0  0  0  0  0  0
   -2.9836   -8.5073    0.3342 O   0  0  0  0  0  0  0  0  0  0  0  0
   -2.1392   -7.6044    0.9271 C   0  0  0  0  0  0  0  0  0  0  0  0
   -1.7836   -6.4881    0.1697 C   0  0  0  0  0  0  0  0  0  0  0  0
   -2.3614   -6.3077   -1.0290 F   0  0  0  0  0  0  0  0  0  0  0  0
   -1.8506  -10.6600    0.5376 C   0  0  1  0  0  0  0  0  0  0  0  0
   -0.5382  -10.1933    0.9337 O   0  0  0  0  0  0  0  0  0  0  0  0
   -2.0518  -12.0651    0.6978 O   0  0  0  0  0  0  0  0  0  0  0  0
   -1.8716  -11.6067   -0.6453 C   0  0  3  0  0  0  0  0  0  0  0  0
   -0.5804  -11.9210   -1.1976 O   0  0  0  0  0  0  0  0  0  0  0  0
    4.6160   -2.2362    2.9780 C   0  0  0  0  0  0  0  0  0  0  0  0
    4.6339   -3.1287    2.1398 O   0  0  0  0  0  0  0  0  0  0  0  0
    5.8322   -1.4288    3.3268 C   0  0  0  0  0  0  0  0  0  0  0  0
    6.6222   -1.1290    2.4484 O   0  0  0  0  0  0  0  0  0  0  0  0
    6.0115   -0.9713    4.7547 C   0  0  0  0  0  0  0  0  0  0  0  0
    7.1118   -0.6829    5.1924 O   0  0  0  0  0  0  0  0  0  0  0  0
  1  2  1  0  0  0  0
  2  3  2  0  0  0  0
  3  4  1  0  0  0  0
  3 53  1  0  0  0  0
  4  5  1  0  0  0  0
  5  6  1  1  0  0  0
  5 49  1  0  0  0  0
  6  7  1  0  0  0  0
  7  8  2  0  0  0  0
  7 12  1  0  0  0  0
  8  9  1  0  0  0  0
  8 26  1  0  0  0  0
  9 10  1  0  0  0  0
 10 11  2  0  0  0  0
 10 21  1  0  0  0  0
 11 12  1  0  0  0  0
 11 13  1  0  0  0  0
 13 14  1  0  0  0  0
 13 19  1  0  0  0  0
 14 15  1  0  0  0  0
 15 16  2  0  0  0  0
 15 17  1  0  0  0  0
 17 18  1  0  0  0  0
 18 19  1  0  0  0  0
 18 25  1  0  0  0  0
 19 20  2  0  0  0  0
 20 21  1  0  0  0  0
 20 22  1  0  0  0  0
 22 23  1  0  0  0  0
 22 24  1  0  0  0  0
 23 24  1  0  0  0  0
 26 27  2  0  0  0  0
 26 32  1  0  0  0  0
 27 28  1  0  0  0  0
 28 29  1  0  0  0  0
 28 30  2  0  0  0  0
 30 31  1  0  0  0  0
 31 32  2  0  0  0  0
 31 42  1  0  0  0  0
 32 33  1  0  0  0  0
 33 34  2  0  0  0  0
 34 35  1  0  0  0  0
 34 41  1  0  0  0  0
 35 36  2  0  0  0  0
 35 37  1  0  0  0  0
 37 38  2  0  0  0  0
 39 37  1  1  0  0  0
 39 40  1  0  0  0  0
 39 44  1  0  0  0  0
 40 41  1  0  0  0  0
 41 42  2  0  0  0  0
 42 43  1  0  0  0  0
 44 45  1  1  0  0  0
 44 46  1  0  0  0  0
 44 47  1  0  0  0  0
 46 47  1  0  0  0  0
 47 48  1  0  0  0  0
 49 50  2  0  0  0  0
 49 51  1  0  0  0  0
 51 52  2  0  0  0  0
 51 53  1  0  0  0  0
 53 54  2  0  0  0  0
M  CHG  2  21   1  28   1
M  END
$$$$