
 OpenBabel11212021383D

 54 62  0  0  1  0  0  0  0  0999 V2000
    2.0937   -6.5678   -2.5276 O   0  0  0  0  0  0  0  0  0  0  0  0
    2.2164   -5.1999   -2.5714 C   0  0  0  0  0  0  0  0  0  0  0  0
    1.8621   -4.4054   -1.5540 C   0  0  0  0  0  0  0  0  0  0  0  0
    1.2813   -4.9379   -0.4176 O   0  0  0  0  0  0  0  0  0  0  0  0
    1.6986   -4.3153    0.7940 C   0  0  2  0  0  0  0  0  0  0  0  0
    1.1500   -5.0305    1.9272 O   0  0  0  0  0  0  0  0  0  0  0  0
    1.5085   -6.3729    2.0553 C   0  0  0  0  0  0  0  0  0  0  0  0
    0.6949   -7.2897    2.6426 C   0  0  0  0  0  0  0  0  0  0  0  0
    1.0737   -8.6430    2.7370 O   0  0  0  0  0  0  0  0  0  0  0  0
    2.2657   -9.0959    2.1593 C   0  0  0  0  0  0  0  0  0  0  0  0
    3.1494   -8.2308    1.6348 C   0  0  0  0  0  0  0  0  0  0  0  0
    2.8817   -6.7657    1.5632 C   0  0  0  0  0  0  0  0  0  0  0  0
    4.4497   -8.6718    1.0254 C   0  0  3  0  0  0  0  0  0  0  0  0
    5.5000   -8.1645    1.8264 O   0  0  0  0  0  0  0  0  0  0  0  0
    6.7644   -8.4562    1.4106 C   0  0  0  0  0  0  0  0  0  0  0  0
    7.7302   -7.8324    1.8151 O   0  0  0  0  0  0  0  0  0  0  0  0
    6.8588   -9.4528    0.4955 O   0  0  0  0  0  0  0  0  0  0  0  0
    5.9107  -10.5148    0.4533 C   0  0  3  0  0  0  0  0  0  0  0  0
    4.5988  -10.1392    1.0457 C   0  0  0  0  0  0  0  0  0  0  0  0
    3.6631  -10.9680    1.5584 C   0  0  0  0  0  0  0  0  0  0  0  0
    2.5097  -10.4552    2.1412 O   0  3  0  0  0  0  0  0  0  0  0  0
    3.7974  -12.4421    1.5573 C   0  0  0  0  0  0  0  0  0  0  0  0
    4.4083  -13.1265    2.6568 O   0  0  0  0  0  0  0  0  0  0  0  0
    2.9898  -13.2471    2.4320 O   0  0  0  0  0  0  0  0  0  0  0  0
    5.6208  -10.8040   -0.9005 O   0  0  0  0  0  0  0  0  0  0  0  0
   -0.6234   -6.9456    3.2978 C   0  0  0  0  0  0  0  0  0  0  0  0
   -0.6725   -5.7005    3.8023 N   0  0  0  0  0  0  0  0  0  0  0  0
   -1.7668   -5.2836    4.4037 N   0  3  0  0  0  0  0  0  0  0  0  0
   -1.7781   -4.0444    4.9331 F   0  0  0  0  0  0  0  0  0  0  0  0
   -2.8341   -6.0300    4.5555 N   0  0  0  0  0  0  0  0  0  0  0  0
   -2.8259   -7.2772    4.1043 C   0  0  0  0  0  0  0  0  0  0  0  0
   -1.7131   -7.8266    3.4544 C   0  0  0  0  0  0  0  0  0  0  0  0
   -1.8043   -9.1791    3.0213 C   0  0  0  0  0  0  0  0  0  0  0  0
   -2.9603   -9.9417    3.2419 C   0  0  0  0  0  0  0  0  0  0  0  0
   -3.0374  -11.3267    2.7672 C   0  0  0  0  0  0  0  0  0  0  0  0
   -2.0668  -11.8643    2.2585 O   0  0  0  0  0  0  0  0  0  0  0  0
   -4.3689  -12.0126    2.9789 C   0  0  0  0  0  0  0  0  0  0  0  0
   -4.4110  -13.2065    3.2258 O   0  0  0  0  0  0  0  0  0  0  0  0
   -5.5391  -11.0538    2.9946 C   0  0  1  0  0  0  0  0  0  0  0  0
   -5.2798  -10.0011    3.9549 O   0  0  0  0  0  0  0  0  0  0  0  0
   -4.0663   -9.3766    3.8495 C   0  0  0  0  0  0  0  0  0  0  0  0
   -3.9733   -8.0557    4.2849 C   0  0  0  0  0  0  0  0  0  0  0  0
   -5.0524   -7.4875    4.8468 F   0  0  0  0  0  0  0  0  0  0  0  0
   -5.9037  -10.5306    1.6202 C   0  0  1  0  0  0  0  0  0  0  0  0
   -6.2416  -11.5300    0.6421 O   0  0  0  0  0  0  0  0  0  0  0  0
   -6.7522   -9.3683    1.6178 O   0  0  0  0  0  0  0  0  0  0  0  0
   -5.5478   -9.2360    1.0809 C   0  0  0  0  0  0  0  0  0  0  0  0
   -4.6145   -8.4634    1.2916 O   0  0  0  0  0  0  0  0  0  0  0  0
    1.2485   -2.8658    0.7922 C   0  0  0  0  0  0  0  0  0  0  0  0
    0.6264   -2.3229    1.6932 O   0  0  0  0  0  0  0  0  0  0  0  0
    1.6836   -2.1325   -0.4609 C   0  0  0  0  0  0  0  0  0  0  0  0
    1.7392   -0.9147   -0.4655 O   0  0  0  0  0  0  0  0  0  0  0  0
    2.0989   -2.9373   -1.6825 C   0  0  0  0  0  0  0  0  0  0  0  0
    2.6305   -2.4231   -2.6504 O   0  0  0  0  0  0  0  0  0  0  0  0
  1  2  1  0  0  0  0
  2  3  2  0  0  0  0
  3  4  1  0  0  0  0
  3 53  1  0  0  0  0
  4  5  1  0  0  0  0
  5  6  1  1  0  0  0
  5 49  1  0  0  0  0
  6  7  1  0  0  0  0
  7  8  2  0  0  0  0
  7 12  1  0  0  0  0
  8  9  1  0  0  0  0
  8 26  1  0  0  0  0
  9 10  1  0  0  0  0
 10 11  2  0  0  0  0
 10 21  1  0  0  0  0
 11 12  1  0  0  0  0
 11 13  1  0  0  0  0
 13 14  1  0  0  0  0
 13 19  1  0  0  0  0
 14 15  1  0  0  0  0
 15 16  2  0  0  0  0
 15 17  1  0  0  0  0
 17 18  1  0  0  0  0
 18 19  1  0  0  0  0
 18 25  1  0  0  0  0
 19 20  2  0  0  0  0
 20 21  1  0  0  0  0
 20 22  1  0  0  0  0
 22 23  1  0  0  0  0
 22 24  1  0  0  0  0
 23 24  1  0  0  0  0
 26 27  2  0  0  0  0
 26 32  1  0  0  0  0
 27 28  1  0  0  0  0
 28 29  1  0  0  0  0
 28 30  2  0  0  0  0
 30 31  1  0  0  0  0
 31 32  2  0  0  0  0
 31 42  1  0  0  0  0
 32 33  1  0  0  0  0
 33 34  2  0  0  0  0
 34 35  1  0  0  0  0
 34 41  1  0  0  0  0
 35 36  2  0  0  0  0
 35 37  1  0  0  0  0
 37 38  2  0  0  0  0
 39 37  1  6  0  0  0
 39 40  1  0  0  0  0
 39 44  1  0  0  0  0
 40 41  1  0  0  0  0
 41 42  2  0  0  0  0
 42 43  1  0  0  0  0
 44 45  1  6  0  0  0
 44 46  1  0  0  0  0
 44 47  1  0  0  0  0
 46 47  1  0  0  0  0
 47 48  2  0  0  0  0
 49 50  2  0  0  0  0
 49 51  1  0  0  0  0
 51 52  2  0  0  0  0
 51 53  1  0  0  0  0
 53 54  2  0  0  0  0
M  CHG  2  21   1  28   1
M  END
$$$$