
 OpenBabel11222001413D

 54 63  0  0  1  0  0  0  0  0999 V2000
    7.2344   -4.5444   -2.8860 O   0  0  0  0  0  0  0  0  0  0  0  0
    7.7944   -4.2754   -1.6617 C   0  0  0  0  0  0  0  0  0  0  0  0
    7.6174   -5.0840   -0.6101 C   0  0  0  0  0  0  0  0  0  0  0  0
    6.8573   -6.2277   -0.7667 O   0  0  0  0  0  0  0  0  0  0  0  0
    6.9500   -7.2408    0.2178 C   0  0  2  0  0  0  0  0  0  0  0  0
    5.9620   -8.2847    0.0125 O   0  0  0  0  0  0  0  0  0  0  0  0
    4.6172   -7.9321    0.0696 C   0  0  0  0  0  0  0  0  0  0  0  0
    3.6878   -8.8043    0.5094 C   0  0  0  0  0  0  0  0  0  0  0  0
    2.3314   -8.4776    0.6259 O   0  0  0  0  0  0  0  0  0  0  0  0
    1.8828   -7.2221    0.1979 C   0  0  0  0  0  0  0  0  0  0  0  0
    2.7316   -6.3266   -0.3350 C   0  0  0  0  0  0  0  0  0  0  0  0
    4.2017   -6.5700   -0.4201 C   0  0  0  0  0  0  0  0  0  0  0  0
    2.2753   -5.0030   -0.8818 C   0  0  3  0  0  0  0  0  0  0  0  0
    2.4691   -5.0488   -2.2831 O   0  0  0  0  0  0  0  0  0  0  0  0
    2.0133   -4.0124   -3.0417 C   0  0  0  0  0  0  0  0  0  0  0  0
    2.3585   -3.8740   -4.1970 O   0  0  0  0  0  0  0  0  0  0  0  0
    1.1444   -3.1691   -2.4317 O   0  0  0  0  0  0  0  0  0  0  0  0
    0.4482   -3.4706   -1.2273 C   0  0  3  0  0  0  0  0  0  0  0  0
    0.8312   -4.7902   -0.6648 C   0  0  0  0  0  0  0  0  0  0  0  0
    0.0320   -5.7034   -0.0716 C   0  0  0  0  0  0  0  0  0  0  0  0
    0.5435   -6.9303    0.3311 O   0  3  0  0  0  0  0  0  0  0  0  0
   -1.4136   -5.4976    0.1630 C   0  0  0  0  0  0  0  0  0  0  0  0
   -2.3829   -5.9263   -0.7986 O   0  0  0  0  0  0  0  0  0  0  0  0
   -2.2652   -6.6176    0.4604 O   0  0  0  0  0  0  0  0  0  0  0  0
    0.8081   -2.5286   -0.2373 O   0  0  0  0  0  0  0  0  0  0  0  0
    4.0194  -10.1927    0.8981 C   0  0  0  0  0  0  0  0  0  0  0  0
    4.4079  -10.4503    2.2107 C   0  0  0  0  0  0  0  0  0  0  0  0
    4.6526  -11.7034    2.6120 N   0  3  0  0  0  0  0  0  0  0  0  0
    5.0088  -11.9270    3.8918 F   0  0  0  0  0  0  0  0  0  0  0  0
    4.5198  -12.7441    1.8110 N   0  0  0  0  0  0  0  0  0  0  0  0
    4.1632  -12.5652    0.5350 C   0  0  0  0  0  0  0  0  0  0  0  0
    3.9321  -11.2825    0.0007 C   0  0  0  0  0  0  0  0  0  0  0  0
    3.6049  -11.1689   -1.3765 C   0  0  0  0  0  0  0  0  0  0  0  0
    3.4346  -12.3115   -2.1691 C   0  0  0  0  0  0  0  0  0  0  0  0
    2.9614  -12.2124   -3.5634 C   0  0  0  0  0  0  0  0  0  0  0  0
    3.2839  -11.2519   -4.3627 N   0  0  0  0  0  0  0  0  0  0  0  0
    2.0799  -13.3658   -3.9437 C   0  0  3  0  0  0  0  0  0  0  0  0
    1.5273  -13.2677   -5.3332 N   0  0  0  0  0  0  0  0  0  0  0  0
    1.1584  -14.3681   -5.8516 N   0  0  0  0  0  0  0  0  0  0  0  0
    2.1574  -15.3761   -5.6973 C   0  0  3  0  0  0  0  0  0  0  0  0
    2.1001  -15.7530   -4.1478 C   0  0  2  0  0  0  0  0  0  0  0  0
    2.9518  -14.6224   -3.6688 C   0  0  2  0  0  0  0  0  0  0  0  0
    3.2533  -14.7516   -2.2614 O   0  0  0  0  0  0  0  0  0  0  0  0
    3.5648  -13.5815   -1.6134 C   0  0  0  0  0  0  0  0  0  0  0  0
    3.9673  -13.6813   -0.2812 C   0  0  0  0  0  0  0  0  0  0  0  0
    4.1323  -14.9004    0.2573 F   0  0  0  0  0  0  0  0  0  0  0  0
    0.8194  -15.8261   -3.4677 O   0  0  0  0  0  0  0  0  0  0  0  0
    2.1452  -16.6753   -5.2146 O   0  0  0  0  0  0  0  0  0  0  0  0
    6.8836   -6.7020    1.6367 C   0  0  0  0  0  0  0  0  0  0  0  0
    6.1069   -7.0763    2.5071 O   0  0  0  0  0  0  0  0  0  0  0  0
    7.8767   -5.5992    1.8554 C   0  0  0  0  0  0  0  0  0  0  0  0
    8.4298   -5.5114    2.9374 O   0  0  0  0  0  0  0  0  0  0  0  0
    8.1903   -4.6643    0.7041 C   0  0  0  0  0  0  0  0  0  0  0  0
    8.8222   -3.6373    0.8768 O   0  0  0  0  0  0  0  0  0  0  0  0
  1  2  1  0  0  0  0
  2  3  2  0  0  0  0
  3  4  1  0  0  0  0
  3 53  1  0  0  0  0
  4  5  1  0  0  0  0
  5  6  1  6  0  0  0
  5 49  1  0  0  0  0
  6  7  1  0  0  0  0
  7  8  2  0  0  0  0
  7 12  1  0  0  0  0
  8  9  1  0  0  0  0
  8 26  1  0  0  0  0
  9 10  1  0  0  0  0
 10 11  2  0  0  0  0
 10 21  1  0  0  0  0
 11 12  1  0  0  0  0
 11 13  1  0  0  0  0
 13 14  1  0  0  0  0
 13 19  1  0  0  0  0
 14 15  1  0  0  0  0
 15 16  2  0  0  0  0
 15 17  1  0  0  0  0
 17 18  1  0  0  0  0
 18 19  1  0  0  0  0
 18 25  1  0  0  0  0
 19 20  2  0  0  0  0
 20 21  1  0  0  0  0
 20 22  1  0  0  0  0
 22 23  1  0  0  0  0
 22 24  1  0  0  0  0
 23 24  1  0  0  0  0
 26 27  2  0  0  0  0
 26 32  1  0  0  0  0
 27 28  1  0  0  0  0
 28 30  2  0  0  0  0
 28 29  1  0  0  0  0
 30 31  1  0  0  0  0
 31 32  2  0  0  0  0
 31 45  1  0  0  0  0
 32 33  1  0  0  0  0
 33 34  2  0  0  0  0
 34 35  1  0  0  0  0
 34 44  1  0  0  0  0
 35 37  1  0  0  0  0
 35 36  2  0  0  0  0
 37 38  1  0  0  0  0
 37 42  1  0  0  0  0
 38 39  2  0  0  0  0
 39 40  1  0  0  0  0
 40 41  1  0  0  0  0
 40 48  1  0  0  0  0
 41 42  1  0  0  0  0
 41 48  1  0  0  0  0
 41 47  1  6  0  0  0
 42 43  1  1  0  0  0
 43 44  1  0  0  0  0
 44 45  2  0  0  0  0
 45 46  1  0  0  0  0
 49 50  2  0  0  0  0
 49 51  1  0  0  0  0
 51 52  2  0  0  0  0
 51 53  1  0  0  0  0
 53 54  2  0  0  0  0
M  CHG  2  21   1  28   1
M  END
$$$$