
 OpenBabel10202008303D

 49 54  0  0  1  0  0  0  0  0999 V2000
   -0.2133   14.4043   -0.3338 C   0  0  0  0  0  0  0  0  0  0  0  0
   -0.5735   13.5708   -1.2559 N   0  0  0  0  0  0  0  0  0  0  0  0
   -0.0248   12.3521   -0.8325 C   0  0  0  0  0  0  0  0  0  0  0  0
   -0.5671   11.9384    0.1868 O   0  0  0  0  0  0  0  0  0  0  0  0
    1.1709   11.8161   -1.3375 N   0  0  0  0  0  0  0  0  0  0  0  0
    1.7355   10.6717   -1.6822 C   0  0  0  0  0  0  0  0  0  0  0  0
    1.5210    8.9195   -2.0148 C   0  0  0  0  0  0  0  0  0  0  0  0
    0.6091    7.8502   -1.8247 C   0  0  0  0  0  0  0  0  0  0  0  0
   -0.4814    7.6519   -0.7253 C   0  0  0  0  0  0  0  0  0  0  0  0
   -0.6748    6.6326    0.2818 O   0  0  0  0  0  0  0  0  0  0  0  0
   -0.1337    7.8985    0.6563 O   0  0  0  0  0  0  0  0  0  0  0  0
    0.3463    6.9393   -2.9222 N   0  0  0  0  0  0  0  0  0  0  0  0
   -0.3171    7.2415   -4.2209 C   0  0  0  0  0  0  0  0  0  0  0  0
    0.3651    8.2221   -5.0015 O   0  0  0  0  0  0  0  0  0  0  0  0
    0.2803    9.5819   -4.6729 C   0  0  0  0  0  0  0  0  0  0  0  0
    1.1493   10.3341   -5.3833 C   0  0  0  0  0  0  0  0  0  0  0  0
    1.4902   11.6627   -5.3827 O   0  0  0  0  0  0  0  0  0  0  0  0
    0.6166   12.5225   -4.7020 C   0  0  1  0  0  0  0  0  0  0  0  0
    1.1875   13.0837   -3.5391 O   0  0  0  0  0  0  0  0  0  0  0  0
    1.8638   14.2576   -3.6339 C   0  0  0  0  0  0  0  0  0  0  0  0
    2.4015   14.9080   -2.5842 C   0  0  0  0  0  0  0  0  0  0  0  0
    2.3909   14.5161   -1.2859 O   0  0  0  0  0  0  0  0  0  0  0  0
    2.0338   14.9201   -4.9372 C   0  0  0  0  0  0  0  0  0  0  0  0
    2.9997   15.5916   -5.2221 O   0  0  0  0  0  0  0  0  0  0  0  0
    0.8794   14.6878   -5.8704 C   0  0  0  0  0  0  0  0  0  0  0  0
    0.6329   15.4845   -6.7627 O   0  0  0  0  0  0  0  0  0  0  0  0
    0.0125   13.4891   -5.6863 C   0  0  0  0  0  0  0  0  0  0  0  0
   -1.0388   13.3243   -6.2614 O   0  0  0  0  0  0  0  0  0  0  0  0
   -0.7250    9.9585   -3.5915 C   0  0  0  0  0  0  0  0  0  0  0  0
   -0.3687   10.1146   -2.3248 N   0  0  0  0  0  0  0  0  0  0  0  0
   -1.1299   10.1041   -1.1978 C   0  0  0  0  0  0  0  0  0  0  0  0
   -2.4082   10.1169   -1.2234 N   0  0  0  0  0  0  0  0  0  0  0  0
   -2.8127   10.1409   -2.4791 C   0  0  0  0  0  0  0  0  0  0  0  0
   -2.0226   10.0557   -3.6760 C   0  0  0  0  0  0  0  0  0  0  0  0
   -2.5498   10.0453   -4.9671 C   0  0  0  0  0  0  0  0  0  0  0  0
   -3.9084   10.0711   -5.0120 C   0  0  0  0  0  0  0  0  0  0  0  0
   -4.6768   10.2205   -3.8497 C   0  0  0  0  0  0  0  0  0  0  0  0
   -4.1314   10.2480   -2.6365 C   0  0  0  0  0  0  0  0  0  0  0  0
   -6.0373   10.3444   -3.8788 O   0  0  0  0  0  0  0  0  0  0  0  0
   -6.6249   10.6001   -5.1714 C   0  0  2  0  0  0  0  0  0  0  0  0
   -5.9914    9.9275   -6.3658 C   0  0  0  0  0  0  0  0  0  0  0  0
   -6.6020    9.6359   -7.3808 O   0  0  0  0  0  0  0  0  0  0  0  0
   -4.4983    9.7629   -6.3017 C   0  0  0  0  0  0  0  0  0  0  0  0
   -3.8431    9.3528   -7.2467 O   0  0  0  0  0  0  0  0  0  0  0  0
   -6.7774   12.0804   -5.3750 C   0  0  1  0  0  0  0  0  0  0  0  0
   -7.6140   12.7509   -4.4165 O   0  0  0  0  0  0  0  0  0  0  0  0
   -5.6140   12.7761   -5.8080 O   0  0  0  0  0  0  0  0  0  0  0  0
   -6.6457   12.7313   -6.6720 C   0  0  0  0  0  0  0  0  0  0  0  0
   -7.3104   13.6330   -7.1400 O   0  0  0  0  0  0  0  0  0  0  0  0
  1  2  2  0  0  0  0
  2  3  1  0  0  0  0
  3  4  2  0  0  0  0
  3  5  1  0  0  0  0
  5  6  2  0  0  0  0
  6  7  1  0  0  0  0
  7  8  2  0  0  0  0
  8  9  1  0  0  0  0
  8 12  1  0  0  0  0
  9 10  1  0  0  0  0
  9 11  1  0  0  0  0
 10 11  1  0  0  0  0
 12 13  1  0  0  0  0
 13 14  1  0  0  0  0
 14 15  1  0  0  0  0
 15 16  2  0  0  0  0
 15 29  1  0  0  0  0
 16 17  1  0  0  0  0
 18 17  1  6  0  0  0
 18 19  1  0  0  0  0
 18 27  1  0  0  0  0
 19 20  1  0  0  0  0
 20 21  2  0  0  0  0
 20 23  1  0  0  0  0
 21 22  1  0  0  0  0
 23 24  2  0  0  0  0
 23 25  1  0  0  0  0
 25 26  2  0  0  0  0
 25 27  1  0  0  0  0
 27 28  2  0  0  0  0
 29 30  2  0  0  0  0
 29 34  1  0  0  0  0
 30 31  1  0  0  0  0
 31 32  2  0  0  0  0
 32 33  1  0  0  0  0
 33 34  2  0  0  0  0
 33 38  1  0  0  0  0
 34 35  1  0  0  0  0
 35 36  2  0  0  0  0
 36 37  1  0  0  0  0
 36 43  1  0  0  0  0
 37 38  2  0  0  0  0
 37 39  1  0  0  0  0
 40 39  1  1  0  0  0
 40 41  1  0  0  0  0
 40 45  1  0  0  0  0
 41 42  2  0  0  0  0
 41 43  1  0  0  0  0
 43 44  2  0  0  0  0
 45 46  1  1  0  0  0
 45 47  1  0  0  0  0
 45 48  1  0  0  0  0
 47 48  1  0  0  0  0
 48 49  2  0  0  0  0
M  END
$$$$