
 OpenBabel11232023043D

 54 61  0  0  1  0  0  0  0  0999 V2000
    0.5524    7.1441    2.0244 O   0  0  0  0  0  0  0  0  0  0  0  0
   -0.0784    6.3100    1.1364 C   0  0  0  0  0  0  0  0  0  0  0  0
    0.2024    5.0060    1.0551 C   0  0  0  0  0  0  0  0  0  0  0  0
    1.2003    4.4330    1.8307 O   0  0  0  0  0  0  0  0  0  0  0  0
    0.7244    3.3154    2.5572 C   0  0  2  0  0  0  0  0  0  0  0  0
    1.8086    2.6579    3.2685 O   0  0  0  0  0  0  0  0  0  0  0  0
    2.1744    3.1154    4.5278 C   0  0  0  0  0  0  0  0  0  0  0  0
    2.7593    2.2920    5.4378 C   0  0  0  0  0  0  0  0  0  0  0  0
    3.1688    2.7600    6.7010 O   0  0  0  0  0  0  0  0  0  0  0  0
    2.9003    4.0865    7.0821 C   0  0  0  0  0  0  0  0  0  0  0  0
    2.2922    4.9397    6.2360 C   0  0  0  0  0  0  0  0  0  0  0  0
    1.9384    4.5690    4.8335 C   0  0  0  0  0  0  0  0  0  0  0  0
    1.8829    6.3325    6.6370 C   0  0  3  0  0  0  0  0  0  0  0  0
    0.4642    6.3642    6.6035 O   0  0  0  0  0  0  0  0  0  0  0  0
   -0.1699    7.4890    7.0267 C   0  0  0  0  0  0  0  0  0  0  0  0
   -1.3478    7.6811    6.7717 O   0  0  0  0  0  0  0  0  0  0  0  0
    0.5633    8.3495    7.7720 O   0  0  0  0  0  0  0  0  0  0  0  0
    1.8300    8.0350    8.3406 C   0  0  3  0  0  0  0  0  0  0  0  0
    2.2634    6.6508    8.0274 C   0  0  0  0  0  0  0  0  0  0  0  0
    2.9118    5.7639    8.8077 C   0  0  0  0  0  0  0  0  0  0  0  0
    3.2496    4.4977    8.3511 O   0  3  0  0  0  0  0  0  0  0  0  0
    3.3674    5.9928   10.2215 C   0  0  0  0  0  0  0  0  0  0  0  0
    3.2922    4.7212   10.8437 O   0  0  0  0  0  0  0  0  0  0  0  0
    4.7231    6.3338   10.1405 O   0  0  0  0  0  0  0  0  0  0  0  0
    2.8077    8.8783    7.7699 O   0  0  0  0  0  0  0  0  0  0  0  0
    2.9841    0.8233    5.1708 C   0  0  0  0  0  0  0  0  0  0  0  0
    1.9810    0.1349    4.4807 C   0  0  0  0  0  0  0  0  0  0  0  0
    2.1273   -1.1330    4.0940 N   0  3  0  0  0  0  0  0  0  0  0  0
    1.1435   -1.7179    3.3831 F   0  0  0  0  0  0  0  0  0  0  0  0
    3.2049   -1.8319    4.3714 N   0  0  0  0  0  0  0  0  0  0  0  0
    4.1924   -1.2738    5.0720 C   0  0  0  0  0  0  0  0  0  0  0  0
    4.1343    0.0641    5.5305 C   0  0  0  0  0  0  0  0  0  0  0  0
    5.2357    0.5248    6.2989 C   0  0  0  0  0  0  0  0  0  0  0  0
    6.3527   -0.2937    6.5607 C   0  0  0  0  0  0  0  0  0  0  0  0
    7.4461    0.1949    7.4011 C   0  0  0  0  0  0  0  0  0  0  0  0
    7.2972    1.2164    8.0546 O   0  0  0  0  0  0  0  0  0  0  0  0
    8.7439   -0.5857    7.3930 C   0  0  0  0  0  0  0  0  0  0  0  0
    9.7471   -0.1142    7.9089 O   0  0  0  0  0  0  0  0  0  0  0  0
    8.7409   -1.8515    6.5589 C   0  0  1  0  0  0  0  0  0  0  0  0
    7.4542   -2.4275    6.2870 O   0  0  0  0  0  0  0  0  0  0  0  0
    6.4174   -1.5755    6.0621 C   0  0  0  0  0  0  0  0  0  0  0  0
    5.3214   -2.0512    5.3440 C   0  0  0  0  0  0  0  0  0  0  0  0
    5.3516   -3.3128    4.8841 F   0  0  0  0  0  0  0  0  0  0  0  0
    9.5183   -1.6909    5.2815 C   0  0  1  0  0  0  0  0  0  0  0  0
    9.5503   -2.8463    4.4101 O   0  0  0  0  0  0  0  0  0  0  0  0
    9.3308   -0.4347    4.6328 O   0  0  0  0  0  0  0  0  0  0  0  0
   10.5893   -0.7127    5.0584 C   0  0  0  0  0  0  0  0  0  0  0  0
   11.6026   -0.8049    4.4082 O   0  0  0  0  0  0  0  0  0  0  0  0
    0.1226    2.2159    1.6926 C   0  0  0  0  0  0  0  0  0  0  0  0
   -0.0482    1.0625    2.0763 O   0  0  0  0  0  0  0  0  0  0  0  0
   -0.2709    2.6818    0.3108 C   0  0  0  0  0  0  0  0  0  0  0  0
   -0.2641    1.8949   -0.6186 O   0  0  0  0  0  0  0  0  0  0  0  0
   -0.5828    4.1515    0.1210 C   0  0  0  0  0  0  0  0  0  0  0  0
   -1.4399    4.5466   -0.6449 O   0  0  0  0  0  0  0  0  0  0  0  0
  1  2  1  0  0  0  0
  2  3  2  0  0  0  0
  3  4  1  0  0  0  0
  3 53  1  0  0  0  0
  4  5  1  0  0  0  0
  5  6  1  6  0  0  0
  5 49  1  0  0  0  0
  6  7  1  0  0  0  0
  7  8  2  0  0  0  0
  7 12  1  0  0  0  0
  8  9  1  0  0  0  0
  8 26  1  0  0  0  0
  9 10  1  0  0  0  0
 10 11  2  0  0  0  0
 10 21  1  0  0  0  0
 11 12  1  0  0  0  0
 11 13  1  0  0  0  0
 13 14  1  0  0  0  0
 13 19  1  0  0  0  0
 14 15  1  0  0  0  0
 15 16  2  0  0  0  0
 15 17  1  0  0  0  0
 17 18  1  0  0  0  0
 18 19  1  0  0  0  0
 18 25  1  0  0  0  0
 19 20  2  0  0  0  0
 20 21  1  0  0  0  0
 20 22  1  0  0  0  0
 22 23  1  0  0  0  0
 22 24  1  0  0  0  0
 26 27  2  0  0  0  0
 26 32  1  0  0  0  0
 27 28  1  0  0  0  0
 28 29  1  0  0  0  0
 28 30  2  0  0  0  0
 30 31  1  0  0  0  0
 31 32  2  0  0  0  0
 31 42  1  0  0  0  0
 32 33  1  0  0  0  0
 33 34  2  0  0  0  0
 34 35  1  0  0  0  0
 34 41  1  0  0  0  0
 35 36  2  0  0  0  0
 35 37  1  0  0  0  0
 37 38  2  0  0  0  0
 39 37  1  6  0  0  0
 39 40  1  0  0  0  0
 39 44  1  0  0  0  0
 40 41  1  0  0  0  0
 41 42  2  0  0  0  0
 42 43  1  0  0  0  0
 44 45  1  6  0  0  0
 44 46  1  0  0  0  0
 44 47  1  0  0  0  0
 46 47  1  0  0  0  0
 47 48  2  0  0  0  0
 49 50  2  0  0  0  0
 49 51  1  0  0  0  0
 51 52  2  0  0  0  0
 51 53  1  0  0  0  0
 53 54  2  0  0  0  0
M  CHG  2  21   1  28   1
M  END
$$$$