
 OpenBabel11222023273D

 53 62  0  0  1  0  0  0  0  0999 V2000
   17.6967    2.6164    0.8009 O   0  0  0  0  0  0  0  0  0  0  0  0
   17.1399    2.1256    1.9558 C   0  0  0  0  0  0  0  0  0  0  0  0
   15.8684    1.7178    2.0221 C   0  0  0  0  0  0  0  0  0  0  0  0
   15.0305    1.7999    0.9203 O   0  0  0  0  0  0  0  0  0  0  0  0
   14.2835    0.6022    0.7423 C   0  0  2  0  0  0  0  0  0  0  0  0
   13.5127    0.6333   -0.4744 O   0  0  0  0  0  0  0  0  0  0  0  0
   14.1625    0.5398   -1.6966 C   0  0  0  0  0  0  0  0  0  0  0  0
   13.4646    0.6188   -2.8570 C   0  0  0  0  0  0  0  0  0  0  0  0
   14.0981    0.5818   -4.0996 O   0  0  0  0  0  0  0  0  0  0  0  0
   15.4822    0.6709   -4.1654 C   0  0  0  0  0  0  0  0  0  0  0  0
   16.2498    0.5377   -3.0738 C   0  0  0  0  0  0  0  0  0  0  0  0
   15.6655    0.3780   -1.7163 C   0  0  0  0  0  0  0  0  0  0  0  0
   17.7468    0.6502   -3.1607 C   0  0  3  0  0  0  0  0  0  0  0  0
   18.3197   -0.6121   -2.7179 N   0  0  0  0  0  0  0  0  0  0  0  0
   19.6713   -0.7050   -2.7412 C   0  0  0  0  0  0  0  0  0  0  0  0
   20.3316   -1.3397   -1.8429 N   0  0  0  0  0  0  0  0  0  0  0  0
   20.2801   -0.1487   -3.8070 N   0  0  0  0  0  0  0  0  0  0  0  0
   19.7652    0.9684   -4.5635 C   0  0  0  0  0  0  0  0  0  0  0  0
   18.2694    0.9208   -4.5421 C   0  0  0  0  0  0  0  0  0  0  0  0
   17.4285    1.0678   -5.5916 C   0  0  0  0  0  0  0  0  0  0  0  0
   16.0589    0.9343   -5.3818 N   0  0  0  0  0  0  0  0  0  0  0  0
   17.8589    1.3660   -6.9771 C   0  0  0  0  0  0  0  0  0  0  0  0
   18.2489    0.3274   -7.8864 O   0  0  0  0  0  0  0  0  0  0  0  0
   17.0290    1.0610   -8.1115 O   0  0  0  0  0  0  0  0  0  0  0  0
   11.9773    0.7734   -2.9198 C   0  0  0  0  0  0  0  0  0  0  0  0
   11.2042    0.0717   -1.9932 C   0  0  0  0  0  0  0  0  0  0  0  0
    9.8815    0.2311   -1.9289 N   0  3  0  0  0  0  0  0  0  0  0  0
    9.1876   -0.4408   -0.9903 F   0  0  0  0  0  0  0  0  0  0  0  0
    9.2238    1.0334   -2.7403 N   0  0  0  0  0  0  0  0  0  0  0  0
    9.8842    1.7012   -3.6888 C   0  0  0  0  0  0  0  0  0  0  0  0
   11.2825    1.5962   -3.8510 C   0  0  0  0  0  0  0  0  0  0  0  0
   11.8704    2.3232   -4.9254 C   0  0  0  0  0  0  0  0  0  0  0  0
   11.1047    3.1173   -5.7911 C   0  0  0  0  0  0  0  0  0  0  0  0
    9.7489    3.2709   -5.5644 C   0  0  0  0  0  0  0  0  0  0  0  0
    9.1574    2.5434   -4.5346 C   0  0  0  0  0  0  0  0  0  0  0  0
    7.8347    2.6668   -4.3377 F   0  0  0  0  0  0  0  0  0  0  0  0
    8.9604    4.1162   -6.3067 O   0  0  0  0  0  0  0  0  0  0  0  0
    9.7130    5.1697   -6.9608 C   0  0  1  0  0  0  0  0  0  0  0  0
   10.8484    4.7119   -7.7713 C   0  0  0  0  0  0  0  0  0  0  0  0
   11.0919    5.0529   -8.9119 O   0  0  0  0  0  0  0  0  0  0  0  0
   11.7299    3.7862   -6.9495 C   0  0  0  0  0  0  0  0  0  0  0  0
   12.9075    3.6137   -7.2138 O   0  0  0  0  0  0  0  0  0  0  0  0
    8.9949    6.2920   -7.4003 O   0  0  0  0  0  0  0  0  0  0  0  0
    9.9025    6.4899   -6.2741 C   0  0  1  0  0  0  0  0  0  0  0  0
    9.3706    6.3268   -4.9091 O   0  0  0  0  0  0  0  0  0  0  0  0
    9.3261    7.5244   -5.4542 C   0  0  0  0  0  0  0  0  0  0  0  0
    9.7540    8.5873   -5.0525 O   0  0  0  0  0  0  0  0  0  0  0  0
   13.2748    0.4670    1.8688 C   0  0  0  0  0  0  0  0  0  0  0  0
   12.1253    0.0669    1.7311 O   0  0  0  0  0  0  0  0  0  0  0  0
   13.8554    0.8427    3.2182 C   0  0  0  0  0  0  0  0  0  0  0  0
   13.1388    0.9140    4.1999 O   0  0  0  0  0  0  0  0  0  0  0  0
   15.3389    1.1632    3.2996 C   0  0  0  0  0  0  0  0  0  0  0  0
   16.0091    0.9068    4.2812 O   0  0  0  0  0  0  0  0  0  0  0  0
  1  2  1  0  0  0  0
  2  3  2  0  0  0  0
  3  4  1  0  0  0  0
  3 52  1  0  0  0  0
  4  5  1  0  0  0  0
  5  6  1  6  0  0  0
  5 48  1  0  0  0  0
  6  7  1  0  0  0  0
  7  8  2  0  0  0  0
  7 12  1  0  0  0  0
  8  9  1  0  0  0  0
  8 25  1  0  0  0  0
  9 10  1  0  0  0  0
 10 11  2  0  0  0  0
 10 21  1  0  0  0  0
 11 12  1  0  0  0  0
 11 13  1  0  0  0  0
 13 14  1  0  0  0  0
 13 19  1  0  0  0  0
 14 15  1  0  0  0  0
 15 16  2  0  0  0  0
 15 17  1  0  0  0  0
 17 18  1  0  0  0  0
 18 19  1  0  0  0  0
 19 20  2  0  0  0  0
 20 21  1  0  0  0  0
 20 22  1  0  0  0  0
 22 23  1  0  0  0  0
 22 24  1  0  0  0  0
 23 24  1  0  0  0  0
 25 26  2  0  0  0  0
 25 31  1  0  0  0  0
 26 27  1  0  0  0  0
 27 28  1  0  0  0  0
 27 29  2  0  0  0  0
 29 30  1  0  0  0  0
 30 31  2  0  0  0  0
 30 35  1  0  0  0  0
 31 32  1  0  0  0  0
 32 33  2  0  0  0  0
 33 34  1  0  0  0  0
 33 41  1  0  0  0  0
 34 35  2  0  0  0  0
 34 37  1  0  0  0  0
 35 36  1  0  0  0  0
 38 37  1  1  0  0  0
 38 39  1  0  0  0  0
 38 43  1  0  0  0  0
 38 44  1  0  0  0  0
 39 40  2  0  0  0  0
 39 41  1  0  0  0  0
 41 42  2  0  0  0  0
 44 43  1  6  0  0  0
 44 45  1  0  0  0  0
 44 46  1  0  0  0  0
 45 46  1  0  0  0  0
 46 47  2  0  0  0  0
 48 49  2  0  0  0  0
 48 50  1  0  0  0  0
 50 51  2  0  0  0  0
 50 52  1  0  0  0  0
 52 53  2  0  0  0  0
M  CHG  1  27   1
M  END
$$$$