
 OpenBabel11262012153D

 54 62  0  0  1  0  0  0  0  0999 V2000
   -0.6251   -3.1339   -3.8170 F   0  0  0  0  0  0  0  0  0  0  0  0
   -0.1647   -2.0050   -3.2435 C   0  0  0  0  0  0  0  0  0  0  0  0
    0.7353   -2.0542   -2.2599 C   0  0  0  0  0  0  0  0  0  0  0  0
    1.1756   -3.2861   -1.8034 O   0  0  0  0  0  0  0  0  0  0  0  0
    2.4114   -3.3034   -1.1044 C   0  0  2  0  0  0  0  0  0  0  0  0
    2.6482   -4.6163   -0.5552 O   0  0  0  0  0  0  0  0  0  0  0  0
    2.7680   -5.6748   -1.4475 C   0  0  0  0  0  0  0  0  0  0  0  0
    2.4258   -6.9409   -1.0986 C   0  0  0  0  0  0  0  0  0  0  0  0
    2.5630   -8.0122   -1.9993 O   0  0  0  0  0  0  0  0  0  0  0  0
    3.2188   -7.8200   -3.2276 C   0  0  0  0  0  0  0  0  0  0  0  0
    3.6779   -6.6049   -3.5889 C   0  0  0  0  0  0  0  0  0  0  0  0
    3.4144   -5.3816   -2.7759 C   0  0  0  0  0  0  0  0  0  0  0  0
    4.4945   -6.3857   -4.8377 C   0  0  3  0  0  0  0  0  0  0  0  0
    5.7751   -5.9451   -4.4354 O   0  0  0  0  0  0  0  0  0  0  0  0
    6.7198   -5.7968   -5.4096 C   0  0  0  0  0  0  0  0  0  0  0  0
    7.7143   -5.1210   -5.2037 O   0  0  0  0  0  0  0  0  0  0  0  0
    6.4916   -6.4310   -6.5885 O   0  0  0  0  0  0  0  0  0  0  0  0
    5.5936   -7.4249   -6.7029 C   0  0  0  0  0  0  0  0  0  0  0  0
    5.4605   -8.1002   -7.7119 O   0  0  0  0  0  0  0  0  0  0  0  0
    4.7049   -7.6386   -5.5635 C   0  0  0  0  0  0  0  0  0  0  0  0
    4.1674   -8.8252   -5.2087 C   0  0  0  0  0  0  0  0  0  0  0  0
    3.4015   -8.9189   -4.0485 O   0  3  0  0  0  0  0  0  0  0  0  0
    4.3994  -10.1007   -5.9306 C   0  0  0  0  0  0  0  0  0  0  0  0
    5.4814  -10.9619   -5.5540 O   0  0  0  0  0  0  0  0  0  0  0  0
    4.1232  -11.3542   -5.2793 O   0  0  0  0  0  0  0  0  0  0  0  0
    1.9431   -7.2964    0.2870 C   0  0  0  0  0  0  0  0  0  0  0  0
    2.5447   -6.6291    1.3633 C   0  0  0  0  0  0  0  0  0  0  0  0
    2.1485   -6.8186    2.6225 N   0  3  0  0  0  0  0  0  0  0  0  0
    2.7439   -6.1209    3.6088 F   0  0  0  0  0  0  0  0  0  0  0  0
    1.1943   -7.6608    2.9400 N   0  0  0  0  0  0  0  0  0  0  0  0
    0.5880   -8.3637    1.9857 C   0  0  0  0  0  0  0  0  0  0  0  0
    0.9327   -8.2461    0.6169 C   0  0  0  0  0  0  0  0  0  0  0  0
    0.2190   -9.0716   -0.2931 C   0  0  0  0  0  0  0  0  0  0  0  0
   -0.8144   -9.9288    0.1400 C   0  0  0  0  0  0  0  0  0  0  0  0
   -1.5583  -10.7430   -0.8252 C   0  0  0  0  0  0  0  0  0  0  0  0
   -1.2091  -10.7722   -1.9952 O   0  0  0  0  0  0  0  0  0  0  0  0
   -2.7333  -11.5378   -0.2931 C   0  0  0  0  0  0  0  0  0  0  0  0
   -3.1668  -12.4873   -0.9264 O   0  0  0  0  0  0  0  0  0  0  0  0
   -3.2687  -11.0545    1.0383 C   0  0  1  0  0  0  0  0  0  0  0  0
   -2.2175  -10.7131    1.9632 O   0  0  0  0  0  0  0  0  0  0  0  0
   -1.1663   -9.9914    1.4732 C   0  0  0  0  0  0  0  0  0  0  0  0
   -0.4357   -9.2259    2.3774 C   0  0  0  0  0  0  0  0  0  0  0  0
   -0.7623   -9.2820    3.6791 F   0  0  0  0  0  0  0  0  0  0  0  0
   -4.3069   -9.9665    0.8806 C   0  0  1  0  0  0  0  0  0  0  0  0
   -5.4843  -10.3178    0.1324 O   0  0  0  0  0  0  0  0  0  0  0  0
   -4.5494   -9.1576    2.0412 O   0  0  0  0  0  0  0  0  0  0  0  0
   -4.0205   -8.5449    0.9754 C   0  0  0  0  0  0  0  0  0  0  0  0
   -2.9908   -7.9086    0.8290 O   0  0  0  0  0  0  0  0  0  0  0  0
    2.3940   -2.2923    0.0192 C   0  0  0  0  0  0  0  0  0  0  0  0
    2.5252   -2.5344    1.2078 O   0  0  0  0  0  0  0  0  0  0  0  0
    2.1864   -0.9105   -0.5363 C   0  0  0  0  0  0  0  0  0  0  0  0
    2.9191   -0.0045   -0.1843 O   0  0  0  0  0  0  0  0  0  0  0  0
    1.1940   -0.7585   -1.6744 C   0  0  0  0  0  0  0  0  0  0  0  0
    0.8403    0.3322   -2.0816 O   0  0  0  0  0  0  0  0  0  0  0  0
  1  2  1  0  0  0  0
  2  3  2  0  0  0  0
  3  4  1  0  0  0  0
  3 53  1  0  0  0  0
  4  5  1  0  0  0  0
  5  6  1  1  0  0  0
  5 49  1  0  0  0  0
  6  7  1  0  0  0  0
  7  8  2  0  0  0  0
  7 12  1  0  0  0  0
  8  9  1  0  0  0  0
  8 26  1  0  0  0  0
  9 10  1  0  0  0  0
 10 11  2  0  0  0  0
 10 22  1  0  0  0  0
 11 12  1  0  0  0  0
 11 13  1  0  0  0  0
 13 14  1  0  0  0  0
 13 20  1  0  0  0  0
 14 15  1  0  0  0  0
 15 16  2  0  0  0  0
 15 17  1  0  0  0  0
 17 18  1  0  0  0  0
 18 19  2  0  0  0  0
 18 20  1  0  0  0  0
 20 21  2  0  0  0  0
 21 22  1  0  0  0  0
 21 23  1  0  0  0  0
 23 24  1  0  0  0  0
 23 25  1  0  0  0  0
 24 25  1  0  0  0  0
 26 27  2  0  0  0  0
 26 32  1  0  0  0  0
 27 28  1  0  0  0  0
 28 29  1  0  0  0  0
 28 30  2  0  0  0  0
 30 31  1  0  0  0  0
 31 32  2  0  0  0  0
 31 42  1  0  0  0  0
 32 33  1  0  0  0  0
 33 34  2  0  0  0  0
 34 35  1  0  0  0  0
 34 41  1  0  0  0  0
 35 36  2  0  0  0  0
 35 37  1  0  0  0  0
 37 38  2  0  0  0  0
 39 37  1  6  0  0  0
 39 40  1  0  0  0  0
 39 44  1  0  0  0  0
 40 41  1  0  0  0  0
 41 42  2  0  0  0  0
 42 43  1  0  0  0  0
 44 45  1  6  0  0  0
 44 46  1  0  0  0  0
 44 47  1  0  0  0  0
 46 47  1  0  0  0  0
 47 48  2  0  0  0  0
 49 50  2  0  0  0  0
 49 51  1  0  0  0  0
 51 52  2  0  0  0  0
 51 53  1  0  0  0  0
 53 54  2  0  0  0  0
M  CHG  2  22   1  28   1
M  END
$$$$