
 OpenBabel11262000593D

 54 62  0  0  1  0  0  0  0  0999 V2000
    5.9704    7.3021    1.8694 O   0  0  0  0  0  0  0  0  0  0  0  0
    6.0286    6.2231    1.0216 C   0  0  0  0  0  0  0  0  0  0  0  0
    5.2752    5.1282    1.1936 C   0  0  0  0  0  0  0  0  0  0  0  0
    4.4071    5.0396    2.2731 O   0  0  0  0  0  0  0  0  0  0  0  0
    3.3874    4.0332    2.2478 C   0  0  2  0  0  0  0  0  0  0  0  0
    3.0669    3.6214    3.6282 O   0  0  0  0  0  0  0  0  0  0  0  0
    2.4285    4.5171    4.4849 C   0  0  0  0  0  0  0  0  0  0  0  0
    2.4888    4.4301    5.8480 C   0  0  0  0  0  0  0  0  0  0  0  0
    1.8902    5.4208    6.6568 O   0  0  0  0  0  0  0  0  0  0  0  0
    1.1355    6.4555    6.0966 C   0  0  0  0  0  0  0  0  0  0  0  0
    0.9249    6.5132    4.7732 C   0  0  0  0  0  0  0  0  0  0  0  0
    1.5598    5.5603    3.8245 C   0  0  0  0  0  0  0  0  0  0  0  0
    0.1136    7.5931    4.1253 C   0  0  3  0  0  0  0  0  0  0  0  0
   -1.0228    7.0002    3.5248 O   0  0  0  0  0  0  0  0  0  0  0  0
   -1.8330    7.8618    2.8456 C   0  0  0  0  0  0  0  0  0  0  0  0
   -2.6644    7.4723    2.0453 O   0  0  0  0  0  0  0  0  0  0  0  0
   -1.5889    9.1748    3.0924 O   0  0  0  0  0  0  0  0  0  0  0  0
   -1.2614    9.5645    4.4221 C   0  0  3  0  0  0  0  0  0  0  0  0
   -0.4055    8.5587    5.1110 C   0  0  0  0  0  0  0  0  0  0  0  0
   -0.1324    8.4785    6.4322 C   0  0  0  0  0  0  0  0  0  0  0  0
    0.6304    7.4294    6.9336 O   0  3  0  0  0  0  0  0  0  0  0  0
   -0.6335    9.4521    7.4266 C   0  0  0  0  0  0  0  0  0  0  0  0
   -1.8797    9.2398    8.0984 O   0  0  0  0  0  0  0  0  0  0  0  0
   -0.6410    9.1192    8.8253 O   0  0  0  0  0  0  0  0  0  0  0  0
   -0.4640   10.7312    4.3705 O   0  0  0  0  0  0  0  0  0  0  0  0
    3.1726    3.3311    6.6523 C   0  0  0  0  0  0  0  0  0  0  0  0
    4.3098    2.7230    6.1288 C   0  0  0  0  0  0  0  0  0  0  0  0
    4.9209    1.7106    6.7560 N   0  3  0  0  0  0  0  0  0  0  0  0
    5.9794    1.1233    6.1646 F   0  0  0  0  0  0  0  0  0  0  0  0
    4.5211    1.2383    7.9191 N   0  0  0  0  0  0  0  0  0  0  0  0
    3.4476    1.7547    8.5134 C   0  0  0  0  0  0  0  0  0  0  0  0
    2.7275    2.8237    7.9220 C   0  0  0  0  0  0  0  0  0  0  0  0
    1.5930    3.2728    8.6371 C   0  0  0  0  0  0  0  0  0  0  0  0
    1.1567    2.6604    9.8220 C   0  0  0  0  0  0  0  0  0  0  0  0
   -0.0832    3.1233   10.4496 C   0  0  0  0  0  0  0  0  0  0  0  0
   -0.7018    4.0769   10.0083 O   0  0  0  0  0  0  0  0  0  0  0  0
   -0.5104    2.3375   11.6592 C   0  0  0  0  0  0  0  0  0  0  0  0
   -1.6843    2.0561   11.8293 O   0  0  0  0  0  0  0  0  0  0  0  0
    0.6656    1.8720   12.4836 C   0  0  1  0  0  0  0  0  0  0  0  0
    1.5956    1.1263   11.6512 O   0  0  0  0  0  0  0  0  0  0  0  0
    1.8875    1.6500   10.4171 C   0  0  0  0  0  0  0  0  0  0  0  0
    3.0256    1.2073    9.7418 C   0  0  0  0  0  0  0  0  0  0  0  0
    3.7566    0.2214   10.2900 F   0  0  0  0  0  0  0  0  0  0  0  0
    1.3179    3.0172   13.2303 C   0  0  1  0  0  0  0  0  0  0  0  0
    0.4692    3.7485   14.1338 O   0  0  0  0  0  0  0  0  0  0  0  0
    2.6481    2.7759   13.7077 O   0  0  0  0  0  0  0  0  0  0  0  0
    2.5098    3.7242   12.7918 C   0  0  0  0  0  0  0  0  0  0  0  0
    3.0191    3.9051   11.6857 O   0  0  0  0  0  0  0  0  0  0  0  0
    3.7892    2.7912    1.5121 C   0  0  0  0  0  0  0  0  0  0  0  0
    4.7724    2.7621    0.6139 C   0  0  0  0  0  0  0  0  0  0  0  0
    5.5273    3.9762    0.2721 C   0  0  0  0  0  0  0  0  0  0  0  0
    6.3232    4.0132   -0.6558 O   0  0  0  0  0  0  0  0  0  0  0  0
    5.1183    1.6285   -0.0246 F   0  0  0  0  0  0  0  0  0  0  0  0
    3.1157    1.6462    1.7663 F   0  0  0  0  0  0  0  0  0  0  0  0
  1  2  1  0  0  0  0
  2  3  2  0  0  0  0
  3  4  1  0  0  0  0
  3 51  1  0  0  0  0
  4  5  1  0  0  0  0
  5 49  1  0  0  0  0
  5  6  1  1  0  0  0
  6  7  1  0  0  0  0
  7  8  2  0  0  0  0
  7 12  1  0  0  0  0
  8  9  1  0  0  0  0
  8 26  1  0  0  0  0
  9 10  1  0  0  0  0
 10 11  2  0  0  0  0
 10 21  1  0  0  0  0
 11 12  1  0  0  0  0
 11 13  1  0  0  0  0
 13 14  1  0  0  0  0
 13 19  1  0  0  0  0
 14 15  1  0  0  0  0
 15 16  2  0  0  0  0
 15 17  1  0  0  0  0
 17 18  1  0  0  0  0
 18 19  1  0  0  0  0
 18 25  1  0  0  0  0
 19 20  2  0  0  0  0
 20 21  1  0  0  0  0
 20 22  1  0  0  0  0
 22 23  1  0  0  0  0
 22 24  1  0  0  0  0
 23 24  1  0  0  0  0
 26 27  2  0  0  0  0
 26 32  1  0  0  0  0
 27 28  1  0  0  0  0
 28 29  1  0  0  0  0
 28 30  2  0  0  0  0
 30 31  1  0  0  0  0
 31 32  2  0  0  0  0
 31 42  1  0  0  0  0
 32 33  1  0  0  0  0
 33 34  2  0  0  0  0
 34 35  1  0  0  0  0
 34 41  1  0  0  0  0
 35 36  2  0  0  0  0
 35 37  1  0  0  0  0
 37 38  2  0  0  0  0
 39 37  1  6  0  0  0
 39 40  1  0  0  0  0
 39 44  1  0  0  0  0
 40 41  1  0  0  0  0
 41 42  2  0  0  0  0
 42 43  1  0  0  0  0
 44 45  1  1  0  0  0
 44 46  1  0  0  0  0
 44 47  1  0  0  0  0
 46 47  1  0  0  0  0
 47 48  2  0  0  0  0
 49 50  2  0  0  0  0
 49 54  1  0  0  0  0
 50 51  1  0  0  0  0
 50 53  1  0  0  0  0
 51 52  2  0  0  0  0
M  CHG  2  21   1  28   1
M  END
$$$$