
 OpenBabel11222018383D

 54 62  0  0  1  0  0  0  0  0999 V2000
   -0.3652   -3.5855   -3.0968 O   0  0  0  0  0  0  0  0  0  0  0  0
    0.2699   -2.4076   -2.7988 C   0  0  0  0  0  0  0  0  0  0  0  0
    1.0278   -2.2512   -1.7064 C   0  0  0  0  0  0  0  0  0  0  0  0
    1.1757   -3.2914   -0.8002 O   0  0  0  0  0  0  0  0  0  0  0  0
    2.3815   -3.2766   -0.0356 C   0  0  2  0  0  0  0  0  0  0  0  0
    2.4650   -4.4216    0.8373 O   0  0  0  0  0  0  0  0  0  0  0  0
    2.4767   -5.6668    0.2091 C   0  0  0  0  0  0  0  0  0  0  0  0
    2.0222   -6.7788    0.8329 C   0  0  0  0  0  0  0  0  0  0  0  0
    2.1076   -8.0538    0.2686 O   0  0  0  0  0  0  0  0  0  0  0  0
    2.8161   -8.2270   -0.9171 C   0  0  0  0  0  0  0  0  0  0  0  0
    3.3393   -7.1887   -1.5890 C   0  0  0  0  0  0  0  0  0  0  0  0
    3.1330   -5.7793   -1.1509 C   0  0  0  0  0  0  0  0  0  0  0  0
    4.1484   -7.4005   -2.8461 C   0  0  3  0  0  0  0  0  0  0  0  0
    5.4586   -6.8955   -2.5953 O   0  0  0  0  0  0  0  0  0  0  0  0
    6.4922   -7.1919   -3.4240 C   0  0  0  0  0  0  0  0  0  0  0  0
    7.5695   -6.6232   -3.3082 O   0  0  0  0  0  0  0  0  0  0  0  0
    6.2935   -8.1536   -4.3578 O   0  0  0  0  0  0  0  0  0  0  0  0
    5.0931   -8.9065   -4.4804 C   0  0  3  0  0  0  0  0  0  0  0  0
    4.2710   -8.8218   -3.2550 C   0  0  0  0  0  0  0  0  0  0  0  0
    3.6985   -9.8222   -2.5490 C   0  0  0  0  0  0  0  0  0  0  0  0
    2.9909   -9.5042   -1.3921 N   0  0  0  0  0  0  0  0  0  0  0  0
    3.7645  -11.2558   -2.9181 C   0  0  0  0  0  0  0  0  0  0  0  0
    4.8303  -12.1027   -2.4620 O   0  0  0  0  0  0  0  0  0  0  0  0
    3.4916  -12.2994   -1.9662 O   0  0  0  0  0  0  0  0  0  0  0  0
    4.3262   -8.3772   -5.5493 O   0  0  0  0  0  0  0  0  0  0  0  0
    1.5808   -6.7901    2.2443 C   0  0  0  0  0  0  0  0  0  0  0  0
    2.5699   -7.0918    3.1761 C   0  0  0  0  0  0  0  0  0  0  0  0
    2.3041   -7.0885    4.4838 N   0  3  0  0  0  0  0  0  0  0  0  0
    3.2806   -7.4101    5.3528 F   0  0  0  0  0  0  0  0  0  0  0  0
    1.1187   -6.7793    4.9660 N   0  0  0  0  0  0  0  0  0  0  0  0
    0.1222   -6.4849    4.1279 C   0  0  0  0  0  0  0  0  0  0  0  0
    0.2825   -6.5068    2.7262 C   0  0  0  0  0  0  0  0  0  0  0  0
   -0.8568   -6.2473    1.9209 C   0  0  0  0  0  0  0  0  0  0  0  0
   -2.0914   -5.9052    2.5045 C   0  0  0  0  0  0  0  0  0  0  0  0
   -3.2619   -5.5989    1.6734 C   0  0  0  0  0  0  0  0  0  0  0  0
   -3.2237   -5.6915    0.4589 O   0  0  0  0  0  0  0  0  0  0  0  0
   -4.5149   -5.1749    2.4065 C   0  0  0  0  0  0  0  0  0  0  0  0
   -5.6198   -5.3626    1.9197 O   0  0  0  0  0  0  0  0  0  0  0  0
   -4.2591   -4.5729    3.7675 C   0  0  1  0  0  0  0  0  0  0  0  0
   -3.3348   -5.3687    4.5336 O   0  0  0  0  0  0  0  0  0  0  0  0
   -2.2170   -5.8147    3.8819 C   0  0  0  0  0  0  0  0  0  0  0  0
   -1.1138   -6.1375    4.6695 C   0  0  0  0  0  0  0  0  0  0  0  0
   -1.2328   -6.0652    6.0065 F   0  0  0  0  0  0  0  0  0  0  0  0
   -3.8947   -3.0902    3.7111 C   0  0  1  0  0  0  0  0  0  0  0  0
   -4.8565   -2.1319    3.1135 N   0  0  0  0  0  0  0  0  0  0  0  0
   -3.2865   -2.5793    4.9095 O   0  0  0  0  0  0  0  0  0  0  0  0
   -2.5167   -2.6140    3.8191 C   0  0  0  0  0  0  0  0  0  0  0  0
   -1.4348   -3.1324    3.5997 O   0  0  0  0  0  0  0  0  0  0  0  0
    2.4106   -1.9813    0.7513 C   0  0  0  0  0  0  0  0  0  0  0  0
    2.4224   -1.8555    1.9646 O   0  0  0  0  0  0  0  0  0  0  0  0
    2.4233   -0.7994   -0.1818 C   0  0  0  0  0  0  0  0  0  0  0  0
    3.1236    0.1671    0.0663 O   0  0  0  0  0  0  0  0  0  0  0  0
    1.6527   -0.9115   -1.4841 C   0  0  0  0  0  0  0  0  0  0  0  0
    1.5860    0.0145   -2.2741 O   0  0  0  0  0  0  0  0  0  0  0  0
  1  2  1  0  0  0  0
  2  3  2  0  0  0  0
  3  4  1  0  0  0  0
  3 53  1  0  0  0  0
  4  5  1  0  0  0  0
  5  6  1  1  0  0  0
  5 49  1  0  0  0  0
  6  7  1  0  0  0  0
  7  8  2  0  0  0  0
  7 12  1  0  0  0  0
  8  9  1  0  0  0  0
  8 26  1  0  0  0  0
  9 10  1  0  0  0  0
 10 11  2  0  0  0  0
 10 21  1  0  0  0  0
 11 12  1  0  0  0  0
 11 13  1  0  0  0  0
 13 14  1  0  0  0  0
 13 19  1  0  0  0  0
 14 15  1  0  0  0  0
 15 16  2  0  0  0  0
 15 17  1  0  0  0  0
 17 18  1  0  0  0  0
 18 19  1  0  0  0  0
 18 25  1  0  0  0  0
 19 20  2  0  0  0  0
 20 21  1  0  0  0  0
 20 22  1  0  0  0  0
 22 23  1  0  0  0  0
 22 24  1  0  0  0  0
 23 24  1  0  0  0  0
 26 27  2  0  0  0  0
 26 32  1  0  0  0  0
 27 28  1  0  0  0  0
 28 29  1  0  0  0  0
 28 30  2  0  0  0  0
 30 31  1  0  0  0  0
 31 32  2  0  0  0  0
 31 42  1  0  0  0  0
 32 33  1  0  0  0  0
 33 34  2  0  0  0  0
 34 35  1  0  0  0  0
 34 41  1  0  0  0  0
 35 36  2  0  0  0  0
 35 37  1  0  0  0  0
 37 38  2  0  0  0  0
 39 37  1  6  0  0  0
 39 40  1  0  0  0  0
 39 44  1  0  0  0  0
 40 41  1  0  0  0  0
 41 42  2  0  0  0  0
 42 43  1  0  0  0  0
 44 45  1  6  0  0  0
 44 46  1  0  0  0  0
 44 47  1  0  0  0  0
 46 47  1  0  0  0  0
 47 48  2  0  0  0  0
 49 50  2  0  0  0  0
 49 51  1  0  0  0  0
 51 52  2  0  0  0  0
 51 53  1  0  0  0  0
 53 54  2  0  0  0  0
M  CHG  1  28   1
M  END
$$$$