
 OpenBabel11222000393D

 55 63  0  0  1  0  0  0  0  0999 V2000
   -0.8837   -2.9511   -4.2389 O   0  0  0  0  0  0  0  0  0  0  0  0
   -0.4633   -1.8114   -3.5977 C   0  0  0  0  0  0  0  0  0  0  0  0
    0.3883   -1.8406   -2.5664 C   0  0  0  0  0  0  0  0  0  0  0  0
    0.8499   -3.0578   -2.0930 O   0  0  0  0  0  0  0  0  0  0  0  0
    2.1120   -3.0109   -1.4467 C   0  0  2  0  0  0  0  0  0  0  0  0
    2.4724   -4.3109   -0.9463 O   0  0  0  0  0  0  0  0  0  0  0  0
    2.5923   -5.3509   -1.8514 C   0  0  0  0  0  0  0  0  0  0  0  0
    2.3508   -6.6318   -1.4828 C   0  0  0  0  0  0  0  0  0  0  0  0
    2.4885   -7.6827   -2.4018 O   0  0  0  0  0  0  0  0  0  0  0  0
    2.9187   -7.4455   -3.7078 C   0  0  0  0  0  0  0  0  0  0  0  0
    3.2660   -6.2113   -4.1105 C   0  0  0  0  0  0  0  0  0  0  0  0
    3.0874   -5.0122   -3.2355 C   0  0  0  0  0  0  0  0  0  0  0  0
    3.8670   -5.9489   -5.4628 C   0  0  3  0  0  0  0  0  0  0  0  0
    5.2022   -5.5350   -5.2257 O   0  0  0  0  0  0  0  0  0  0  0  0
    6.0378   -5.3688   -6.2840 C   0  0  0  0  0  0  0  0  0  0  0  0
    7.1005   -4.7828   -6.1600 O   0  0  0  0  0  0  0  0  0  0  0  0
    5.6321   -5.9040   -7.4590 O   0  0  0  0  0  0  0  0  0  0  0  0
    4.5844   -6.8586   -7.5834 C   0  0  3  0  0  0  0  0  0  0  0  0
    3.9409   -7.1769   -6.2823 C   0  0  0  0  0  0  0  0  0  0  0  0
    3.4979   -8.3793   -5.8514 C   0  0  0  0  0  0  0  0  0  0  0  0
    2.9940   -8.5225   -4.5648 O   0  3  0  0  0  0  0  0  0  0  0  0
    3.5448   -9.6131   -6.6683 C   0  0  0  0  0  0  0  0  0  0  0  0
    4.6668  -10.5001   -6.5945 O   0  0  0  0  0  0  0  0  0  0  0  0
    3.3958  -10.9015   -6.0474 O   0  0  0  0  0  0  0  0  0  0  0  0
    3.5584   -6.3115   -8.3855 O   0  0  0  0  0  0  0  0  0  0  0  0
    1.9316   -7.0444   -0.0886 C   0  0  0  0  0  0  0  0  0  0  0  0
    2.3908   -6.3030    1.0025 C   0  0  0  0  0  0  0  0  0  0  0  0
    2.0208   -6.5885    2.2516 N   0  3  0  0  0  0  0  0  0  0  0  0
    2.4546   -5.8037    3.2569 F   0  0  0  0  0  0  0  0  0  0  0  0
    1.2458   -7.6055    2.5452 N   0  0  0  0  0  0  0  0  0  0  0  0
    0.7941   -8.4107    1.5846 C   0  0  0  0  0  0  0  0  0  0  0  0
    1.1133   -8.1666    0.2242 C   0  0  0  0  0  0  0  0  0  0  0  0
    0.5855   -9.0600   -0.7315 C   0  0  0  0  0  0  0  0  0  0  0  0
   -0.1861  -10.1646   -0.3662 C   0  0  0  0  0  0  0  0  0  0  0  0
   -0.6555  -11.0831   -1.4050 C   0  0  0  0  0  0  0  0  0  0  0  0
   -0.2330  -10.9878   -2.5490 O   0  0  0  0  0  0  0  0  0  0  0  0
   -1.6477  -12.1369   -0.9727 C   0  0  0  0  0  0  0  0  0  0  0  0
   -1.8594  -13.1068   -1.6833 O   0  0  0  0  0  0  0  0  0  0  0  0
   -2.3112  -11.8545    0.3576 C   0  0  1  0  0  0  0  0  0  0  0  0
   -1.3751  -11.3776    1.3475 O   0  0  0  0  0  0  0  0  0  0  0  0
   -0.5239  -10.3795    0.9559 C   0  0  0  0  0  0  0  0  0  0  0  0
   -0.0271   -9.5046    1.9391 C   0  0  0  0  0  0  0  0  0  0  0  0
   -0.3768   -9.7438    3.3962 C   0  0  0  0  0  0  0  0  0  0  0  0
    0.6284  -10.5910    4.0207 N   0  0  0  0  0  0  0  0  0  0  0  0
   -3.5361  -10.9798    0.2144 C   0  0  1  0  0  0  0  0  0  0  0  0
   -4.5833  -11.4977   -0.6240 O   0  0  0  0  0  0  0  0  0  0  0  0
   -3.9885  -10.3453    1.4250 O   0  0  0  0  0  0  0  0  0  0  0  0
   -3.5674   -9.5414    0.4373 C   0  0  0  0  0  0  0  0  0  0  0  0
   -2.7210   -8.6772    0.3928 O   0  0  0  0  0  0  0  0  0  0  0  0
    2.0185   -2.0868   -0.2556 C   0  0  0  0  0  0  0  0  0  0  0  0
    2.1984   -2.4087    0.9100 O   0  0  0  0  0  0  0  0  0  0  0  0
    1.6359   -0.6948   -0.6833 C   0  0  0  0  0  0  0  0  0  0  0  0
    2.0822    0.2653   -0.0821 O   0  0  0  0  0  0  0  0  0  0  0  0
    0.7758   -0.5429   -1.9285 C   0  0  0  0  0  0  0  0  0  0  0  0
    0.4689    0.5488   -2.3721 O   0  0  0  0  0  0  0  0  0  0  0  0
  1  2  1  0  0  0  0
  2  3  2  0  0  0  0
  3  4  1  0  0  0  0
  3 54  1  0  0  0  0
  4  5  1  0  0  0  0
  5  6  1  1  0  0  0
  5 50  1  0  0  0  0
  6  7  1  0  0  0  0
  7  8  2  0  0  0  0
  7 12  1  0  0  0  0
  8  9  1  0  0  0  0
  8 26  1  0  0  0  0
  9 10  1  0  0  0  0
 10 11  2  0  0  0  0
 10 21  1  0  0  0  0
 11 12  1  0  0  0  0
 11 13  1  0  0  0  0
 13 14  1  0  0  0  0
 13 19  1  0  0  0  0
 14 15  1  0  0  0  0
 15 16  2  0  0  0  0
 15 17  1  0  0  0  0
 17 18  1  0  0  0  0
 18 19  1  0  0  0  0
 18 25  1  0  0  0  0
 19 20  2  0  0  0  0
 20 21  1  0  0  0  0
 20 22  1  0  0  0  0
 22 23  1  0  0  0  0
 22 24  1  0  0  0  0
 23 24  1  0  0  0  0
 26 27  2  0  0  0  0
 26 32  1  0  0  0  0
 27 28  1  0  0  0  0
 28 29  1  0  0  0  0
 28 30  2  0  0  0  0
 30 31  1  0  0  0  0
 31 32  2  0  0  0  0
 31 42  1  0  0  0  0
 32 33  1  0  0  0  0
 33 34  2  0  0  0  0
 34 35  1  0  0  0  0
 34 41  1  0  0  0  0
 35 36  2  0  0  0  0
 35 37  1  0  0  0  0
 37 38  2  0  0  0  0
 39 37  1  6  0  0  0
 39 40  1  0  0  0  0
 39 45  1  0  0  0  0
 40 41  1  0  0  0  0
 41 42  2  0  0  0  0
 42 43  1  0  0  0  0
 43 44  1  0  0  0  0
 45 46  1  6  0  0  0
 45 47  1  0  0  0  0
 45 48  1  0  0  0  0
 47 48  1  0  0  0  0
 48 49  2  0  0  0  0
 50 51  2  0  0  0  0
 50 52  1  0  0  0  0
 52 53  2  0  0  0  0
 52 54  1  0  0  0  0
 54 55  2  0  0  0  0
M  CHG  2  21   1  28   1
M  END
$$$$