
 OpenBabel11222001453D

 54 63  0  0  1  0  0  0  0  0999 V2000
    0.7834  -19.4313    4.8262 O   0  0  0  0  0  0  0  0  0  0  0  0
   -0.1594  -20.4296    4.7922 C   0  0  0  0  0  0  0  0  0  0  0  0
   -1.4387  -20.1996    4.4749 C   0  0  0  0  0  0  0  0  0  0  0  0
   -1.8538  -18.9063    4.1989 O   0  0  0  0  0  0  0  0  0  0  0  0
   -2.9902  -18.8007    3.3557 C   0  0  2  0  0  0  0  0  0  0  0  0
   -3.3845  -17.4245    3.2090 O   0  0  0  0  0  0  0  0  0  0  0  0
   -2.4780  -16.5347    2.6607 C   0  0  0  0  0  0  0  0  0  0  0  0
   -2.4810  -15.2254    3.0104 C   0  0  0  0  0  0  0  0  0  0  0  0
   -1.5549  -14.3298    2.4501 O   0  0  0  0  0  0  0  0  0  0  0  0
   -0.6071  -14.7644    1.5168 C   0  0  0  0  0  0  0  0  0  0  0  0
   -0.6139  -16.0291    1.0614 C   0  0  0  0  0  0  0  0  0  0  0  0
   -1.5436  -17.0651    1.6031 C   0  0  0  0  0  0  0  0  0  0  0  0
    0.3182  -16.4990   -0.0210 C   0  0  3  0  0  0  0  0  0  0  0  0
   -0.4842  -16.7708   -1.1549 O   0  0  0  0  0  0  0  0  0  0  0  0
    0.1288  -17.0866   -2.3281 C   0  0  0  0  0  0  0  0  0  0  0  0
   -0.5041  -17.5580   -3.2643 O   0  0  0  0  0  0  0  0  0  0  0  0
    1.4527  -16.8395   -2.3954 O   0  0  0  0  0  0  0  0  0  0  0  0
    2.1501  -15.9711   -1.5010 C   0  0  3  0  0  0  0  0  0  0  0  0
    1.2738  -15.4486   -0.4219 C   0  0  0  0  0  0  0  0  0  0  0  0
    1.2822  -14.2115    0.1235 C   0  0  0  0  0  0  0  0  0  0  0  0
    0.3287  -13.8539    1.0690 O   0  3  0  0  0  0  0  0  0  0  0  0
    2.2524  -13.1584   -0.2515 C   0  0  0  0  0  0  0  0  0  0  0  0
    1.9648  -12.2357   -1.3079 O   0  0  0  0  0  0  0  0  0  0  0  0
    1.9842  -11.7807    0.0594 O   0  0  0  0  0  0  0  0  0  0  0  0
    3.1583  -16.7072   -0.8394 O   0  0  0  0  0  0  0  0  0  0  0  0
   -3.4472  -14.6301    4.0152 C   0  0  0  0  0  0  0  0  0  0  0  0
   -4.7252  -15.1906    4.1431 C   0  0  0  0  0  0  0  0  0  0  0  0
   -5.5949  -14.7679    5.0648 N   0  3  0  0  0  0  0  0  0  0  0  0
   -6.7875  -15.3864    5.1704 F   0  0  0  0  0  0  0  0  0  0  0  0
   -5.3333  -13.7720    5.8816 N   0  0  0  0  0  0  0  0  0  0  0  0
   -4.1668  -13.1356    5.7976 C   0  0  0  0  0  0  0  0  0  0  0  0
   -3.1697  -13.5176    4.8605 C   0  0  0  0  0  0  0  0  0  0  0  0
   -1.9804  -12.7527    4.8432 C   0  0  0  0  0  0  0  0  0  0  0  0
   -1.8214  -11.6740    5.7055 C   0  0  0  0  0  0  0  0  0  0  0  0
   -0.7001  -10.8268    5.6521 C   0  0  0  0  0  0  0  0  0  0  0  0
    0.3218  -10.4993    4.9615 N   0  0  0  0  0  0  0  0  0  0  0  0
    0.6203   -9.4781    5.9837 N   0  0  0  0  0  0  0  0  0  0  0  0
   -0.4203   -9.8504    6.6303 C   0  0  0  0  0  0  0  0  0  0  0  0
   -1.2699   -9.7599    7.8189 C   0  0  1  0  0  0  0  0  0  0  0  0
   -2.6179  -10.2661    7.5313 O   0  0  0  0  0  0  0  0  0  0  0  0
   -2.7640  -11.3226    6.6578 C   0  0  0  0  0  0  0  0  0  0  0  0
   -3.9395  -12.0619    6.6710 C   0  0  0  0  0  0  0  0  0  0  0  0
   -4.9015  -11.7330    7.5479 F   0  0  0  0  0  0  0  0  0  0  0  0
   -0.6806  -10.5573    8.9472 C   0  0  1  0  0  0  0  0  0  0  0  0
   -0.5143  -11.9749    8.7170 O   0  0  0  0  0  0  0  0  0  0  0  0
    0.3974   -9.9127    9.6278 O   0  0  0  0  0  0  0  0  0  0  0  0
   -0.7890  -10.1309   10.3960 C   0  0  3  0  0  0  0  0  0  0  0  0
   -0.6775  -11.1946   11.3575 O   0  0  0  0  0  0  0  0  0  0  0  0
   -4.1485  -19.5235    3.9999 C   0  0  0  0  0  0  0  0  0  0  0  0
   -5.1955  -19.0093    4.3655 O   0  0  0  0  0  0  0  0  0  0  0  0
   -3.8298  -20.9820    4.1789 C   0  0  0  0  0  0  0  0  0  0  0  0
   -4.6942  -21.8156    3.9800 O   0  0  0  0  0  0  0  0  0  0  0  0
   -2.3880  -21.3586    4.4797 C   0  0  0  0  0  0  0  0  0  0  0  0
   -2.0507  -22.5118    4.6771 O   0  0  0  0  0  0  0  0  0  0  0  0
  1  2  1  0  0  0  0
  2  3  2  0  0  0  0
  3  4  1  0  0  0  0
  3 53  1  0  0  0  0
  4  5  1  0  0  0  0
  5  6  1  1  0  0  0
  5 49  1  0  0  0  0
  6  7  1  0  0  0  0
  7  8  2  0  0  0  0
  7 12  1  0  0  0  0
  8  9  1  0  0  0  0
  8 26  1  0  0  0  0
  9 10  1  0  0  0  0
 10 11  2  0  0  0  0
 10 21  1  0  0  0  0
 11 12  1  0  0  0  0
 11 13  1  0  0  0  0
 13 14  1  0  0  0  0
 13 19  1  0  0  0  0
 14 15  1  0  0  0  0
 15 16  2  0  0  0  0
 15 17  1  0  0  0  0
 17 18  1  0  0  0  0
 18 19  1  0  0  0  0
 18 25  1  0  0  0  0
 19 20  2  0  0  0  0
 20 21  1  0  0  0  0
 20 22  1  0  0  0  0
 22 23  1  0  0  0  0
 22 24  1  0  0  0  0
 23 24  1  0  0  0  0
 26 27  2  0  0  0  0
 26 32  1  0  0  0  0
 27 28  1  0  0  0  0
 28 29  1  0  0  0  0
 28 30  2  0  0  0  0
 30 31  1  0  0  0  0
 31 32  2  0  0  0  0
 31 42  1  0  0  0  0
 32 33  1  0  0  0  0
 33 34  2  0  0  0  0
 34 35  1  0  0  0  0
 34 41  1  0  0  0  0
 35 36  2  0  0  0  0
 35 38  1  0  0  0  0
 36 37  1  0  0  0  0
 37 38  2  0  0  0  0
 39 38  1  6  0  0  0
 39 40  1  0  0  0  0
 39 44  1  0  0  0  0
 40 41  1  0  0  0  0
 41 42  2  0  0  0  0
 42 43  1  0  0  0  0
 44 45  1  6  0  0  0
 44 46  1  0  0  0  0
 44 47  1  0  0  0  0
 46 47  1  0  0  0  0
 47 48  1  0  0  0  0
 49 50  2  0  0  0  0
 49 51  1  0  0  0  0
 51 52  2  0  0  0  0
 51 53  1  0  0  0  0
 53 54  2  0  0  0  0
M  CHG  2  21   1  28   1
M  END
$$$$