
 OpenBabel10192022283D

 51 59  0  0  1  0  0  0  0  0999 V2000
    5.4994   -1.0974   -9.9602 O   0  0  0  0  0  0  0  0  0  0  0  0
    5.5302   -2.2226   -9.1836 C   0  0  0  0  0  0  0  0  0  0  0  0
    5.0556   -2.2854   -7.9335 C   0  0  0  0  0  0  0  0  0  0  0  0
    4.4912   -1.1546   -7.3504 O   0  0  0  0  0  0  0  0  0  0  0  0
    3.3036   -1.4063   -6.5674 C   0  0  2  0  0  0  0  0  0  0  0  0
    2.8783   -0.2255   -5.8516 O   0  0  0  0  0  0  0  0  0  0  0  0
    2.4934    0.8786   -6.6046 C   0  0  0  0  0  0  0  0  0  0  0  0
    2.6063    2.1362   -6.1184 C   0  0  0  0  0  0  0  0  0  0  0  0
    2.2695    3.2752   -6.8514 O   0  0  0  0  0  0  0  0  0  0  0  0
    1.8500    3.1340   -8.1678 C   0  0  0  0  0  0  0  0  0  0  0  0
    1.6497    1.9234   -8.7090 C   0  0  0  0  0  0  0  0  0  0  0  0
    1.8940    0.6545   -7.9718 C   0  0  0  0  0  0  0  0  0  0  0  0
    1.2356    1.8463  -10.1351 C   0  0  0  0  0  0  0  0  0  0  0  0
    0.9778    0.7048  -10.6833 N   0  0  0  0  0  0  0  0  0  0  0  0
    0.6052    0.6670  -12.0121 C   0  0  0  0  0  0  0  0  0  0  0  0
    0.2818   -0.4143  -12.4867 O   0  0  0  0  0  0  0  0  0  0  0  0
    0.5775    1.7830  -12.8266 N   0  0  0  0  0  0  0  0  0  0  0  0
    0.8365    2.9331  -12.3067 C   0  0  0  0  0  0  0  0  0  0  0  0
    1.1605    3.1136  -10.8915 C   0  0  0  0  0  0  0  0  0  0  0  0
    1.3969    4.2838  -10.2651 C   0  0  0  0  0  0  0  0  0  0  0  0
    1.6795    4.2818   -8.9039 N   0  0  0  0  0  0  0  0  0  0  0  0
    1.3917    5.6072  -10.9300 C   0  0  0  0  0  0  0  0  0  0  0  0
    2.2341    6.6842  -10.4836 O   0  0  0  0  0  0  0  0  0  0  0  0
    2.4913    6.0405  -11.7463 O   0  0  0  0  0  0  0  0  0  0  0  0
    3.1368    2.4361   -4.7738 C   0  0  0  0  0  0  0  0  0  0  0  0
    2.2088    2.4832   -3.7933 N   0  0  0  0  0  0  0  0  0  0  0  0
    2.6737    2.7273   -2.5638 C   0  0  0  0  0  0  0  0  0  0  0  0
    3.9566    2.9192   -2.2254 N   0  0  0  0  0  0  0  0  0  0  0  0
    4.8593    2.8804   -3.2099 C   0  0  0  0  0  0  0  0  0  0  0  0
    4.5035    2.6654   -4.5493 C   0  0  0  0  0  0  0  0  0  0  0  0
    5.5014    2.7111   -5.5510 C   0  0  0  0  0  0  0  0  0  0  0  0
    6.8325    2.9449   -5.2048 C   0  0  0  0  0  0  0  0  0  0  0  0
    7.2014    3.0751   -3.8749 C   0  0  0  0  0  0  0  0  0  0  0  0
    6.2044    3.0633   -2.8955 C   0  0  0  0  0  0  0  0  0  0  0  0
    8.4838    3.2399   -3.4339 O   0  0  0  0  0  0  0  0  0  0  0  0
    9.5456    3.0615   -4.3851 C   0  0  2  0  0  0  0  0  0  0  0  0
    9.2128    3.5259   -5.7781 C   0  0  0  0  0  0  0  0  0  0  0  0
    9.9921    4.1051   -6.5231 O   0  0  0  0  0  0  0  0  0  0  0  0
    7.8460    3.1011   -6.2498 C   0  0  0  0  0  0  0  0  0  0  0  0
    7.6193    2.8913   -7.4291 O   0  0  0  0  0  0  0  0  0  0  0  0
   10.0749    1.6558   -4.3612 C   0  0  1  0  0  0  0  0  0  0  0  0
   10.6075    1.1995   -3.0944 O   0  0  0  0  0  0  0  0  0  0  0  0
    9.3081    0.7016   -5.0944 O   0  0  0  0  0  0  0  0  0  0  0  0
   10.5664    0.9275   -5.5424 C   0  0  0  0  0  0  0  0  0  0  0  0
   11.4851    0.1598   -5.6595 O   0  0  0  0  0  0  0  0  0  0  0  0
    3.4925   -2.5510   -5.5636 C   0  0  1  0  0  0  0  0  0  0  0  0
    3.9040   -3.7921   -6.3332 C   0  0  3  0  0  0  0  0  0  0  0  0
    5.1916   -3.5328   -7.0938 C   0  0  3  0  0  0  0  0  0  0  0  0
    6.2167   -3.3652   -6.2124 F   0  0  0  0  0  0  0  0  0  0  0  0
    4.0517   -4.8488   -5.4907 F   0  0  0  0  0  0  0  0  0  0  0  0
    4.4596   -2.2163   -4.6636 F   0  0  0  0  0  0  0  0  0  0  0  0
  1  2  1  0  0  0  0
  2  3  2  0  0  0  0
  3  4  1  0  0  0  0
  3 48  1  0  0  0  0
  4  5  1  0  0  0  0
  5  6  1  1  0  0  0
  5 46  1  0  0  0  0
  6  7  1  0  0  0  0
  7  8  2  0  0  0  0
  7 12  1  0  0  0  0
  8  9  1  0  0  0  0
  8 25  1  0  0  0  0
  9 10  1  0  0  0  0
 10 11  2  0  0  0  0
 10 21  1  0  0  0  0
 11 12  1  0  0  0  0
 11 13  1  0  0  0  0
 13 14  2  0  0  0  0
 13 19  1  0  0  0  0
 14 15  1  0  0  0  0
 15 16  2  0  0  0  0
 15 17  1  0  0  0  0
 17 18  2  0  0  0  0
 18 19  1  0  0  0  0
 19 20  2  0  0  0  0
 20 21  1  0  0  0  0
 20 22  1  0  0  0  0
 22 23  1  0  0  0  0
 22 24  1  0  0  0  0
 23 24  1  0  0  0  0
 25 26  2  0  0  0  0
 25 30  1  0  0  0  0
 26 27  1  0  0  0  0
 27 28  2  0  0  0  0
 28 29  1  0  0  0  0
 29 30  2  0  0  0  0
 29 34  1  0  0  0  0
 30 31  1  0  0  0  0
 31 32  2  0  0  0  0
 32 33  1  0  0  0  0
 32 39  1  0  0  0  0
 33 34  2  0  0  0  0
 33 35  1  0  0  0  0
 36 35  1  1  0  0  0
 36 37  1  0  0  0  0
 36 41  1  0  0  0  0
 37 38  2  0  0  0  0
 37 39  1  0  0  0  0
 39 40  2  0  0  0  0
 41 42  1  1  0  0  0
 41 43  1  0  0  0  0
 41 44  1  0  0  0  0
 43 44  1  0  0  0  0
 44 45  2  0  0  0  0
 46 47  1  0  0  0  0
 46 51  1  1  0  0  0
 47 48  1  0  0  0  0
 47 50  1  0  0  0  0
 48 49  1  0  0  0  0
M  END
$$$$