
 OpenBabel11222001203D

 54 62  0  0  1  0  0  0  0  0999 V2000
    7.1922    2.4785    5.8315 O   0  0  0  0  0  0  0  0  0  0  0  0
    6.7945    2.9509    4.6025 C   0  0  0  0  0  0  0  0  0  0  0  0
    5.6278    2.5977    4.0532 C   0  0  0  0  0  0  0  0  0  0  0  0
    4.8196    1.7159    4.7323 O   0  0  0  0  0  0  0  0  0  0  0  0
    3.5681    1.3435    4.1908 C   0  0  2  0  0  0  0  0  0  0  0  0
    3.1079    0.1211    4.8223 O   0  0  0  0  0  0  0  0  0  0  0  0
    3.2001   -0.0147    6.2042 C   0  0  0  0  0  0  0  0  0  0  0  0
    3.3412   -1.2312    6.7906 C   0  0  0  0  0  0  0  0  0  0  0  0
    3.4365   -1.3612    8.1892 O   0  0  0  0  0  0  0  0  0  0  0  0
    3.5390   -0.2314    9.0069 C   0  0  0  0  0  0  0  0  0  0  0  0
    3.3408    0.9942    8.4968 C   0  0  0  0  0  0  0  0  0  0  0  0
    3.0644    1.2286    7.0469 C   0  0  0  0  0  0  0  0  0  0  0  0
    3.4788    2.2345    9.3201 C   0  0  3  0  0  0  0  0  0  0  0  0
    2.2414    2.9152    9.3232 O   0  0  0  0  0  0  0  0  0  0  0  0
    2.2947    4.1483    9.9011 C   0  0  0  0  0  0  0  0  0  0  0  0
    1.4890    5.0211    9.6312 O   0  0  0  0  0  0  0  0  0  0  0  0
    3.3421    4.3311   10.7463 O   0  0  0  0  0  0  0  0  0  0  0  0
    3.8461    3.2259   11.4919 C   0  0  3  0  0  0  0  0  0  0  0  0
    3.7794    1.9429   10.7352 C   0  0  0  0  0  0  0  0  0  0  0  0
    3.9685    0.6872   11.2030 C   0  0  0  0  0  0  0  0  0  0  0  0
    3.8531   -0.4053   10.3424 O   0  3  0  0  0  0  0  0  0  0  0  0
    4.3259    0.3646   12.6098 C   0  0  0  0  0  0  0  0  0  0  0  0
    3.8990   -0.8742   13.2017 O   0  0  0  0  0  0  0  0  0  0  0  0
    5.2894   -0.6630   12.8953 O   0  0  0  0  0  0  0  0  0  0  0  0
    5.2261    3.4294   11.7197 O   0  0  0  0  0  0  0  0  0  0  0  0
    3.3875   -2.5309    6.0246 C   0  0  0  0  0  0  0  0  0  0  0  0
    2.6677   -2.6368    4.8288 C   0  0  0  0  0  0  0  0  0  0  0  0
    2.6943   -3.7458    4.0859 N   0  3  0  0  0  0  0  0  0  0  0  0
    1.9848   -3.7834    2.9412 F   0  0  0  0  0  0  0  0  0  0  0  0
    3.3864   -4.8090    4.4283 N   0  0  0  0  0  0  0  0  0  0  0  0
    4.0828   -4.8066    5.5643 C   0  0  0  0  0  0  0  0  0  0  0  0
    4.1046   -3.6923    6.4324 C   0  0  0  0  0  0  0  0  0  0  0  0
    4.8449   -3.8326    7.6341 C   0  0  0  0  0  0  0  0  0  0  0  0
    5.5356   -5.0080    7.9506 C   0  0  0  0  0  0  0  0  0  0  0  0
    6.2197   -5.1339    9.2415 C   0  0  0  0  0  0  0  0  0  0  0  0
    6.2463   -4.1689   10.1148 N   0  0  0  0  0  0  0  0  0  0  0  0
    6.8575   -6.4680    9.4979 C   0  0  0  0  0  0  0  0  0  0  0  0
    6.9378   -6.9576   10.6918 N   0  0  0  0  0  0  0  0  0  0  0  0
    7.3086   -7.2038    8.2542 C   0  0  1  0  0  0  0  0  0  0  0  0
    6.2895   -7.2103    7.2354 O   0  0  0  0  0  0  0  0  0  0  0  0
    5.5720   -6.0608    7.0555 C   0  0  0  0  0  0  0  0  0  0  0  0
    4.8202   -5.9480    5.8873 C   0  0  0  0  0  0  0  0  0  0  0  0
    4.8096   -6.9787    5.0260 F   0  0  0  0  0  0  0  0  0  0  0  0
    8.5895   -6.6519    7.7154 C   0  0  1  0  0  0  0  0  0  0  0  0
    8.5880   -5.2602    7.2958 O   0  0  0  0  0  0  0  0  0  0  0  0
    9.7642   -7.0876    8.3915 O   0  0  0  0  0  0  0  0  0  0  0  0
    9.6356   -7.4839    7.1033 C   0  0  0  0  0  0  0  0  0  0  0  0
   10.3259   -7.2303    6.1495 O   0  0  0  0  0  0  0  0  0  0  0  0
    3.6669    1.0821    2.6990 C   0  0  0  0  0  0  0  0  0  0  0  0
    3.3271    0.0476    2.1407 O   0  0  0  0  0  0  0  0  0  0  0  0
    4.2751    2.2512    1.9623 C   0  0  0  0  0  0  0  0  0  0  0  0
    3.9079    2.5151    0.8317 O   0  0  0  0  0  0  0  0  0  0  0  0
    5.3182    3.0863    2.6815 C   0  0  0  0  0  0  0  0  0  0  0  0
    5.8552    4.0494    2.1658 O   0  0  0  0  0  0  0  0  0  0  0  0
  1  2  1  0  0  0  0
  2  3  2  0  0  0  0
  3  4  1  0  0  0  0
  3 53  1  0  0  0  0
  4  5  1  0  0  0  0
  5  6  1  1  0  0  0
  5 49  1  0  0  0  0
  6  7  1  0  0  0  0
  7  8  2  0  0  0  0
  7 12  1  0  0  0  0
  8  9  1  0  0  0  0
  8 26  1  0  0  0  0
  9 10  1  0  0  0  0
 10 11  2  0  0  0  0
 10 21  1  0  0  0  0
 11 12  1  0  0  0  0
 11 13  1  0  0  0  0
 13 14  1  0  0  0  0
 13 19  1  0  0  0  0
 14 15  1  0  0  0  0
 15 16  2  0  0  0  0
 15 17  1  0  0  0  0
 17 18  1  0  0  0  0
 18 19  1  0  0  0  0
 18 25  1  0  0  0  0
 19 20  2  0  0  0  0
 20 21  1  0  0  0  0
 20 22  1  0  0  0  0
 22 23  1  0  0  0  0
 22 24  1  0  0  0  0
 23 24  1  0  0  0  0
 26 27  2  0  0  0  0
 26 32  1  0  0  0  0
 27 28  1  0  0  0  0
 28 29  1  0  0  0  0
 28 30  2  0  0  0  0
 30 31  1  0  0  0  0
 31 32  2  0  0  0  0
 31 42  1  0  0  0  0
 32 33  1  0  0  0  0
 33 34  2  0  0  0  0
 34 35  1  0  0  0  0
 34 41  1  0  0  0  0
 35 36  2  0  0  0  0
 35 37  1  0  0  0  0
 37 38  2  0  0  0  0
 39 37  1  1  0  0  0
 39 40  1  0  0  0  0
 39 44  1  0  0  0  0
 40 41  1  0  0  0  0
 41 42  2  0  0  0  0
 42 43  1  0  0  0  0
 44 45  1  6  0  0  0
 44 46  1  0  0  0  0
 44 47  1  0  0  0  0
 46 47  1  0  0  0  0
 47 48  2  0  0  0  0
 49 50  2  0  0  0  0
 49 51  1  0  0  0  0
 51 52  2  0  0  0  0
 51 53  1  0  0  0  0
 53 54  2  0  0  0  0
M  CHG  2  21   1  28   1
M  END
$$$$