
 OpenBabel11242001323D

 53 61  0  0  1  0  0  0  0  0999 V2000
    2.8261    1.0906   -3.5708 O   0  0  0  0  0  0  0  0  0  0  0  0
    3.2515    0.0140   -2.8322 C   0  0  0  0  0  0  0  0  0  0  0  0
    3.8975   -1.0450   -3.3446 C   0  0  0  0  0  0  0  0  0  0  0  0
    4.0639   -1.2423   -4.7042 O   0  0  0  0  0  0  0  0  0  0  0  0
    4.5634   -2.5540   -5.0570 C   0  0  2  0  0  0  0  0  0  0  0  0
    3.5640   -3.4657   -5.4858 O   0  0  0  0  0  0  0  0  0  0  0  0
    3.4964   -4.0609   -6.7523 C   0  0  0  0  0  0  0  0  0  0  0  0
    4.1024   -3.7307   -7.9311 C   0  0  0  0  0  0  0  0  0  0  0  0
    3.9179   -4.5070   -9.0792 O   0  0  0  0  0  0  0  0  0  0  0  0
    3.4275   -5.7922   -9.0128 C   0  0  0  0  0  0  0  0  0  0  0  0
    2.7456   -6.2371   -7.9120 C   0  0  0  0  0  0  0  0  0  0  0  0
    2.6284   -5.3328   -6.7240 C   0  0  0  0  0  0  0  0  0  0  0  0
    2.2851   -7.5614   -7.9638 C   0  0  0  0  0  0  0  0  0  0  0  0
    1.5531   -8.0817   -6.8759 O   0  0  0  0  0  0  0  0  0  0  0  0
    1.4589   -9.4561   -6.6832 C   0  0  0  0  0  0  0  0  0  0  0  0
    1.0219   -9.9539   -5.5847 N   0  0  0  0  0  0  0  0  0  0  0  0
    1.8767  -10.2775   -7.6603 O   0  0  0  0  0  0  0  0  0  0  0  0
    2.0752   -9.8045   -8.9945 C   0  0  0  0  0  0  0  0  0  0  0  0
    2.5546   -8.3931   -9.0466 C   0  0  0  0  0  0  0  0  0  0  0  0
    3.2289   -7.8464  -10.1439 C   0  0  0  0  0  0  0  0  0  0  0  0
    3.6555   -6.5467  -10.1093 N   0  0  0  0  0  0  0  0  0  0  0  0
    3.4398   -8.6068  -11.4358 C   0  0  0  0  0  0  0  0  0  0  0  0
    4.7883   -8.7496  -11.9072 O   0  0  0  0  0  0  0  0  0  0  0  0
    4.0772   -9.8924  -11.3990 O   0  0  0  0  0  0  0  0  0  0  0  0
    5.0068   -2.5641   -8.2238 C   0  0  0  0  0  0  0  0  0  0  0  0
    4.7211   -1.3038   -7.6984 C   0  0  0  0  0  0  0  0  0  0  0  0
    5.6613   -0.3546   -7.6217 N   0  3  0  0  0  0  0  0  0  0  0  0
    5.4337    0.7338   -6.8597 F   0  0  0  0  0  0  0  0  0  0  0  0
    6.8255   -0.4712   -8.2184 N   0  0  0  0  0  0  0  0  0  0  0  0
    7.0477   -1.5410   -8.9858 C   0  0  0  0  0  0  0  0  0  0  0  0
    6.1740   -2.6469   -9.0127 C   0  0  0  0  0  0  0  0  0  0  0  0
    6.4926   -3.7233   -9.8741 C   0  0  0  0  0  0  0  0  0  0  0  0
    7.6035   -3.6866  -10.7063 C   0  0  0  0  0  0  0  0  0  0  0  0
    7.8788   -4.8107  -11.6065 C   0  0  0  0  0  0  0  0  0  0  0  0
    7.0452   -5.6746  -11.8153 O   0  0  0  0  0  0  0  0  0  0  0  0
    9.2477   -4.8420  -12.2417 C   0  0  0  0  0  0  0  0  0  0  0  0
    9.5656   -5.7393  -13.0067 O   0  0  0  0  0  0  0  0  0  0  0  0
   10.1788   -3.7468  -11.7642 C   0  0  1  0  0  0  0  0  0  0  0  0
    9.5350   -2.4896  -11.4983 O   0  0  0  0  0  0  0  0  0  0  0  0
    8.4394   -2.5897  -10.6910 C   0  0  0  0  0  0  0  0  0  0  0  0
    8.1496   -1.5333   -9.8320 C   0  0  0  0  0  0  0  0  0  0  0  0
    8.9329   -0.4434   -9.8530 F   0  0  0  0  0  0  0  0  0  0  0  0
   10.9346   -4.1884  -10.5559 C   0  0  1  0  0  0  0  0  0  0  0  0
   10.1557   -4.5326   -9.3785 O   0  0  0  0  0  0  0  0  0  0  0  0
   12.0781   -5.0012  -10.8078 O   0  0  0  0  0  0  0  0  0  0  0  0
   12.3235   -3.7760  -10.2697 C   0  0  0  0  0  0  0  0  0  0  0  0
   12.8069   -3.4793   -9.2245 O   0  0  0  0  0  0  0  0  0  0  0  0
    5.8463   -2.9373   -4.3468 C   0  0  0  0  0  0  0  0  0  0  0  0
    6.8453   -3.3137   -4.9468 O   0  0  0  0  0  0  0  0  0  0  0  0
    5.8455   -2.5332   -2.9112 C   0  0  0  0  0  0  0  0  0  0  0  0
    6.8631   -2.5814   -2.2460 O   0  0  0  0  0  0  0  0  0  0  0  0
    4.5549   -1.9641   -2.3789 C   0  0  0  0  0  0  0  0  0  0  0  0
    4.0904   -2.3187   -1.3104 O   0  0  0  0  0  0  0  0  0  0  0  0
  1  2  1  0  0  0  0
  2  3  2  0  0  0  0
  3  4  1  0  0  0  0
  3 52  1  0  0  0  0
  4  5  1  0  0  0  0
  5  6  1  1  0  0  0
  5 48  1  0  0  0  0
  6  7  1  0  0  0  0
  7  8  2  0  0  0  0
  7 12  1  0  0  0  0
  8  9  1  0  0  0  0
  8 25  1  0  0  0  0
  9 10  1  0  0  0  0
 10 11  2  0  0  0  0
 10 21  1  0  0  0  0
 11 12  1  0  0  0  0
 11 13  1  0  0  0  0
 13 14  1  0  0  0  0
 13 19  2  0  0  0  0
 14 15  1  0  0  0  0
 15 16  2  0  0  0  0
 15 17  1  0  0  0  0
 17 18  1  0  0  0  0
 18 19  1  0  0  0  0
 19 20  1  0  0  0  0
 20 21  2  0  0  0  0
 20 22  1  0  0  0  0
 22 23  1  0  0  0  0
 22 24  1  0  0  0  0
 23 24  1  0  0  0  0
 25 26  2  0  0  0  0
 25 31  1  0  0  0  0
 26 27  1  0  0  0  0
 27 28  1  0  0  0  0
 27 29  2  0  0  0  0
 29 30  1  0  0  0  0
 30 31  2  0  0  0  0
 30 41  1  0  0  0  0
 31 32  1  0  0  0  0
 32 33  2  0  0  0  0
 33 34  1  0  0  0  0
 33 40  1  0  0  0  0
 34 35  2  0  0  0  0
 34 36  1  0  0  0  0
 36 37  2  0  0  0  0
 38 36  1  1  0  0  0
 38 39  1  0  0  0  0
 38 43  1  0  0  0  0
 39 40  1  0  0  0  0
 40 41  2  0  0  0  0
 41 42  1  0  0  0  0
 43 44  1  1  0  0  0
 43 45  1  0  0  0  0
 43 46  1  0  0  0  0
 45 46  1  0  0  0  0
 46 47  2  0  0  0  0
 48 49  2  0  0  0  0
 48 50  1  0  0  0  0
 50 51  2  0  0  0  0
 50 52  1  0  0  0  0
 52 53  2  0  0  0  0
M  CHG  1  27   1
M  END
$$$$