
 OpenBabel11232013053D

 54 62  0  0  1  0  0  0  0  0999 V2000
   -2.0418    4.8167   -2.2207 O   0  0  0  0  0  0  0  0  0  0  0  0
   -1.9795    3.4484   -2.1166 C   0  0  0  0  0  0  0  0  0  0  0  0
   -0.8495    2.7546   -2.2972 C   0  0  0  0  0  0  0  0  0  0  0  0
    0.3243    3.3676   -2.6883 O   0  0  0  0  0  0  0  0  0  0  0  0
    1.4034    3.0721   -1.8187 C   0  0  2  0  0  0  0  0  0  0  0  0
    2.6342    3.6978   -2.2635 O   0  0  0  0  0  0  0  0  0  0  0  0
    2.7103    5.0705   -2.4380 C   0  0  0  0  0  0  0  0  0  0  0  0
    3.8733    5.6325   -2.8314 C   0  0  0  0  0  0  0  0  0  0  0  0
    4.0309    7.0019   -3.0424 O   0  0  0  0  0  0  0  0  0  0  0  0
    2.9545    7.8620   -2.8160 C   0  0  0  0  0  0  0  0  0  0  0  0
    1.7674    7.3967   -2.3850 C   0  0  0  0  0  0  0  0  0  0  0  0
    1.4994    5.9322   -2.1838 C   0  0  0  0  0  0  0  0  0  0  0  0
    0.6078    8.3104   -2.1032 C   0  0  3  0  0  0  0  0  0  0  0  0
    0.3076    8.2104   -0.7222 O   0  0  0  0  0  0  0  0  0  0  0  0
   -0.7596    8.9452   -0.3011 C   0  0  0  0  0  0  0  0  0  0  0  0
   -1.3169    8.7212    0.7590 O   0  0  0  0  0  0  0  0  0  0  0  0
   -1.1665    9.9041   -1.1713 O   0  0  0  0  0  0  0  0  0  0  0  0
   -0.1875   10.6039   -1.9286 C   0  0  3  0  0  0  0  0  0  0  0  0
    0.9522    9.7327   -2.3269 C   0  0  0  0  0  0  0  0  0  0  0  0
    2.1545   10.1379   -2.7929 C   0  0  0  0  0  0  0  0  0  0  0  0
    3.1519    9.2041   -3.0456 O   0  3  0  0  0  0  0  0  0  0  0  0
    2.5132   11.5473   -3.0426 C   0  0  3  0  0  0  0  0  0  0  0  0
    3.8403   11.7947   -3.5096 N   0  0  0  0  0  0  0  0  0  0  0  0
    3.6131   12.0740   -2.3199 N   0  0  0  0  0  0  0  0  0  0  0  0
   -0.7610   11.0183   -3.1511 O   0  0  0  0  0  0  0  0  0  0  0  0
    5.1014    4.8359   -3.0505 C   0  0  0  0  0  0  0  0  0  0  0  0
    5.9395    4.6039   -1.9628 C   0  0  0  0  0  0  0  0  0  0  0  0
    7.0576    3.8844   -2.1029 N   0  3  0  0  0  0  0  0  0  0  0  0
    7.8536    3.6899   -1.0341 F   0  0  0  0  0  0  0  0  0  0  0  0
    7.4236    3.3643   -3.2546 N   0  0  0  0  0  0  0  0  0  0  0  0
    6.6452    3.5118   -4.3319 C   0  0  0  0  0  0  0  0  0  0  0  0
    5.4503    4.2563   -4.2876 C   0  0  0  0  0  0  0  0  0  0  0  0
    4.6746    4.3661   -5.4674 C   0  0  0  0  0  0  0  0  0  0  0  0
    5.0581    3.7135   -6.6490 C   0  0  0  0  0  0  0  0  0  0  0  0
    4.2329    3.8249   -7.8562 C   0  0  0  0  0  0  0  0  0  0  0  0
    3.2782    4.5852   -7.8821 O   0  0  0  0  0  0  0  0  0  0  0  0
    4.6402    2.9811   -9.0462 C   0  0  0  0  0  0  0  0  0  0  0  0
    4.1562    3.1811  -10.1491 O   0  0  0  0  0  0  0  0  0  0  0  0
    5.6315    1.8841   -8.7239 C   0  0  1  0  0  0  0  0  0  0  0  0
    6.6519    2.2658   -7.7811 O   0  0  0  0  0  0  0  0  0  0  0  0
    6.2183    2.9617   -6.6864 C   0  0  0  0  0  0  0  0  0  0  0  0
    7.0114    2.9032   -5.5382 C   0  0  0  0  0  0  0  0  0  0  0  0
    8.1934    2.2010   -5.5760 O   0  0  0  0  0  0  0  0  0  0  0  0
    4.9324    0.6475   -8.2573 C   0  0  1  0  0  0  0  0  0  0  0  0
    4.0926    0.7781   -7.0803 O   0  0  0  0  0  0  0  0  0  0  0  0
    4.4387   -0.2079   -9.2812 O   0  0  0  0  0  0  0  0  0  0  0  0
    5.4344   -0.7063   -8.5185 C   0  0  0  0  0  0  0  0  0  0  0  0
    5.4526   -1.6525   -7.7693 O   0  0  0  0  0  0  0  0  0  0  0  0
    1.7171    1.5835   -1.7540 C   0  0  0  0  0  0  0  0  0  0  0  0
    2.8231    1.1309   -1.4824 O   0  0  0  0  0  0  0  0  0  0  0  0
    0.5285    0.6829   -2.0245 C   0  0  0  0  0  0  0  0  0  0  0  0
    0.7035   -0.5120   -2.1963 O   0  0  0  0  0  0  0  0  0  0  0  0
   -0.8637    1.2817   -2.0954 C   0  0  0  0  0  0  0  0  0  0  0  0
   -1.8730    0.6175   -1.9525 O   0  0  0  0  0  0  0  0  0  0  0  0
  1  2  1  0  0  0  0
  2  3  2  0  0  0  0
  3  4  1  0  0  0  0
  3 53  1  0  0  0  0
  4  5  1  0  0  0  0
  5  6  1  6  0  0  0
  5 49  1  0  0  0  0
  6  7  1  0  0  0  0
  7  8  2  0  0  0  0
  7 12  1  0  0  0  0
  8  9  1  0  0  0  0
  8 26  1  0  0  0  0
  9 10  1  0  0  0  0
 10 11  2  0  0  0  0
 10 21  1  0  0  0  0
 11 12  1  0  0  0  0
 11 13  1  0  0  0  0
 13 14  1  0  0  0  0
 13 19  1  0  0  0  0
 14 15  1  0  0  0  0
 15 16  2  0  0  0  0
 15 17  1  0  0  0  0
 17 18  1  0  0  0  0
 18 19  1  0  0  0  0
 18 25  1  0  0  0  0
 19 20  2  0  0  0  0
 20 21  1  0  0  0  0
 20 22  1  0  0  0  0
 22 23  1  0  0  0  0
 22 24  1  0  0  0  0
 23 24  2  0  0  0  0
 26 27  2  0  0  0  0
 26 32  1  0  0  0  0
 27 28  1  0  0  0  0
 28 29  1  0  0  0  0
 28 30  2  0  0  0  0
 30 31  1  0  0  0  0
 31 32  2  0  0  0  0
 31 42  1  0  0  0  0
 32 33  1  0  0  0  0
 33 34  2  0  0  0  0
 34 35  1  0  0  0  0
 34 41  1  0  0  0  0
 35 36  2  0  0  0  0
 35 37  1  0  0  0  0
 37 38  2  0  0  0  0
 39 37  1  1  0  0  0
 39 40  1  0  0  0  0
 39 44  1  0  0  0  0
 40 41  1  0  0  0  0
 41 42  2  0  0  0  0
 42 43  1  0  0  0  0
 44 45  1  1  0  0  0
 44 46  1  0  0  0  0
 44 47  1  0  0  0  0
 46 47  1  0  0  0  0
 47 48  2  0  0  0  0
 49 50  2  0  0  0  0
 49 51  1  0  0  0  0
 51 52  2  0  0  0  0
 51 53  1  0  0  0  0
 53 54  2  0  0  0  0
M  CHG  2  21   1  28   1
M  END
$$$$