
 OpenBabel04222117353D

 60 67  0  0  1  0  0  0  0  0999 V2000
    8.1436    1.0171    4.8098 O   0  0  0  0  0  0  0  0  0  0  0  0
    8.4295    1.2196    3.4136 C   0  0  2  0  0  0  0  0  0  0  0  0
    7.1429    1.0900    2.5756 C   0  0  2  0  0  0  0  0  0  0  0  0
    6.5335   -0.1887    2.9334 O   0  0  0  0  0  0  0  0  0  0  0  0
    5.3737   -0.5646    2.1736 C   0  0  2  0  0  0  0  0  0  0  0  0
    4.2897    0.3653    2.3648 O   0  0  0  0  0  0  0  0  0  0  0  0
    3.1126   -0.3838    2.7642 C   0  0  0  0  0  0  0  0  0  0  0  0
    3.5982   -1.6720    3.4173 C   0  0  1  0  0  0  0  0  0  0  0  0
    4.8124   -1.9770    2.5353 C   0  0  2  0  0  0  0  0  0  0  0  0
    5.7273   -2.8436    3.2043 O   0  0  0  0  0  0  0  0  0  0  0  0
    4.0823   -1.3912    4.7369 O   0  0  0  0  0  0  0  0  0  0  0  0
    2.5426   -2.8120    3.5285 C   0  0  0  0  0  0  0  0  0  0  0  0
    1.2527   -2.4876    4.3472 C   0  0  3  0  0  0  0  0  0  0  0  0
    0.2017   -3.6423    4.4497 C   0  0  3  0  0  0  0  0  0  0  0  0
    0.4115   -4.6531    3.4666 O   0  0  0  0  0  0  0  0  0  0  0  0
    0.3084   -4.2617    5.8697 C   0  0  3  0  0  0  0  0  0  0  0  0
    1.4528   -3.5102    6.5529 C   0  0  3  0  0  0  0  0  0  0  0  0
    1.4784   -2.1638    5.8299 C   0  0  3  0  0  0  0  0  0  0  0  0
    0.3773   -1.3715    6.3003 O   0  0  0  0  0  0  0  0  0  0  0  0
    1.2235   -3.3053    7.9497 O   0  0  0  0  0  0  0  0  0  0  0  0
   -0.9193   -4.1162    6.5995 O   0  0  0  0  0  0  0  0  0  0  0  0
    7.5536    1.2201    1.0911 C   0  0  1  0  0  0  0  0  0  0  0  0
    8.1334    2.4975    0.7694 O   0  0  0  0  0  0  0  0  0  0  0  0
    8.4174    2.6974   -0.5664 C   0  0  0  0  0  0  0  0  0  0  0  0
    9.0615    3.8982   -0.8862 C   0  0  0  0  0  0  0  0  0  0  0  0
    9.4097    4.1631   -2.2171 C   0  0  0  0  0  0  0  0  0  0  0  0
   10.0056    5.3427   -2.5744 O   0  0  0  0  0  0  0  0  0  0  0  0
    9.1530    3.2300   -3.2300 C   0  0  0  0  0  0  0  0  0  0  0  0
    8.4848    2.0530   -2.9045 C   0  0  0  0  0  0  0  0  0  0  0  0
    8.1204    1.7914   -1.5902 C   0  0  0  0  0  0  0  0  0  0  0  0
    8.1389    1.0823   -3.8194 O   0  0  0  0  0  0  0  0  0  0  0  0
    8.4740    1.2709   -5.1509 C   0  0  0  0  0  0  0  0  0  0  0  0
    9.1586    2.3558   -5.5613 C   0  0  0  0  0  0  0  0  0  0  0  0
    9.6088    3.4439   -4.6386 C   0  0  0  0  0  0  0  0  0  0  0  0
    7.9858    0.2096   -6.0794 C   0  0  0  0  0  0  0  0  0  0  0  0
    7.0126   -0.7372   -5.7153 C   0  0  0  0  0  0  0  0  0  0  0  0
    6.5489   -1.6600   -6.6606 C   0  0  0  0  0  0  0  0  0  0  0  0
    5.6213   -2.6168   -6.3382 O   0  0  0  0  0  0  0  0  0  0  0  0
    7.0260   -1.6534   -7.9726 C   0  0  0  0  0  0  0  0  0  0  0  0
    8.0180   -0.7621   -8.3610 C   0  0  0  0  0  0  0  0  0  0  0  0
    8.4993    0.1328   -7.3870 C   0  0  0  0  0  0  0  0  0  0  0  0
    8.6148   -0.8102   -9.7548 C   0  0  3  0  0  0  0  0  0  0  0  0
    9.8576   -1.7129   -9.8011 C   0  0  0  0  0  0  0  0  0  0  0  0
   11.0311   -0.8604   -9.7625 O   0  0  0  0  0  0  0  0  0  0  0  0
   10.5424    0.3653  -10.1635 C   0  0  0  0  0  0  0  0  0  0  0  0
    9.2186    0.4760  -10.2152 C   0  0  0  0  0  0  0  0  0  0  0  0
    6.5311   -2.5547   -8.8752 O   0  0  0  0  0  0  0  0  0  0  0  0
    8.4221    0.1296    0.7780 O   0  0  0  0  0  0  0  0  0  0  0  0
    9.6802    0.1989    1.4581 C   0  0  3  0  0  0  0  0  0  0  0  0
    9.5060    0.2115    2.9835 C   0  0  1  0  0  0  0  0  0  0  0  0
   10.7498    0.5477    3.6330 O   0  0  0  0  0  0  0  0  0  0  0  0
   10.3966   -0.9827    1.0842 O   0  0  0  0  0  0  0  0  0  0  0  0
   11.0500   -0.9315   -0.0752 C   0  0  0  0  0  0  0  0  0  0  0  0
   11.3827    0.1151   -0.6372 O   0  0  0  0  0  0  0  0  0  0  0  0
   11.2659   -2.3504   -0.6810 C   0  0  0  0  0  0  0  0  0  0  0  0
   10.6858   -3.4356    0.2155 C   0  0  0  0  0  0  0  0  0  0  0  0
   10.6063   -2.3689   -2.0947 C   0  0  0  0  0  0  0  0  0  0  0  0
   11.7472   -2.5012   -3.1035 C   0  0  0  0  0  0  0  0  0  0  0  0
   12.9833   -2.0239   -2.3616 C   0  0  0  0  0  0  0  0  0  0  0  0
   12.7609   -2.5952   -0.9671 C   0  0  0  0  0  0  0  0  0  0  0  0
  2  3  1  0  0  0  0
  2 50  1  0  0  0  0
  2  1  1  1  0  0  0
  3 22  1  0  0  0  0
  3  4  1  6  0  0  0
  5  6  1  0  0  0  0
  5  9  1  0  0  0  0
  5  4  1  1  0  0  0
  6  7  1  0  0  0  0
  7  8  1  0  0  0  0
  8  9  1  0  0  0  0
  8 12  1  6  0  0  0
  8 11  1  0  0  0  0
  9 10  1  1  0  0  0
 12 13  1  0  0  0  0
 13 14  1  0  0  0  0
 13 18  1  0  0  0  0
 14 15  1  0  0  0  0
 14 16  1  0  0  0  0
 16 17  1  0  0  0  0
 16 21  1  0  0  0  0
 17 18  1  0  0  0  0
 17 20  1  0  0  0  0
 18 19  1  0  0  0  0
 22 48  1  0  0  0  0
 22 23  1  1  0  0  0
 23 24  1  0  0  0  0
 24 25  2  0  0  0  0
 24 30  1  0  0  0  0
 25 26  1  0  0  0  0
 26 27  1  0  0  0  0
 26 28  2  0  0  0  0
 28 29  1  0  0  0  0
 28 34  1  0  0  0  0
 29 30  2  0  0  0  0
 29 31  1  0  0  0  0
 31 32  1  0  0  0  0
 32 33  2  0  0  0  0
 32 35  1  0  0  0  0
 33 34  1  0  0  0  0
 35 36  2  0  0  0  0
 35 41  1  0  0  0  0
 36 37  1  0  0  0  0
 37 38  1  0  0  0  0
 37 39  2  0  0  0  0
 39 40  1  0  0  0  0
 39 47  1  0  0  0  0
 40 41  2  0  0  0  0
 40 42  1  0  0  0  0
 42 43  1  0  0  0  0
 42 46  1  0  0  0  0
 43 44  1  0  0  0  0
 44 45  1  0  0  0  0
 45 46  2  0  0  0  0
 48 49  1  0  0  0  0
 49 50  1  0  0  0  0
 49 52  1  0  0  0  0
 50 51  1  1  0  0  0
 52 53  1  0  0  0  0
 53 54  2  0  0  0  0
 53 55  1  0  0  0  0
 55 56  1  0  0  0  0
 55 57  1  0  0  0  0
 55 60  1  0  0  0  0
 57 58  1  0  0  0  0
 58 59  1  0  0  0  0
 59 60  1  0  0  0  0
M  END
$$$$