
 OpenBabel05192121313D

 53 63  0  0  1  0  0  0  0  0999 V2000
    1.7406    0.1493   -3.6604 F   0  0  0  0  0  0  0  0  0  0  0  0
    3.0367   -0.0418   -3.3804 C   0  0  0  0  0  0  0  0  0  0  0  0
    3.9473    0.9610   -3.6618 C   0  0  0  0  0  0  0  0  0  0  0  0
    5.2792    0.7550   -3.3320 C   0  0  0  0  0  0  0  0  0  0  0  0
    5.6671   -0.4255   -2.6804 C   0  0  0  0  0  0  0  0  0  0  0  0
    4.7712   -1.4796   -2.3940 C   0  0  0  0  0  0  0  0  0  0  0  0
    3.4410   -1.2504   -2.8030 C   0  0  0  0  0  0  0  0  0  0  0  0
    5.1895   -2.7537   -1.6921 C   0  0  0  0  0  0  0  0  0  0  0  0
    4.3463   -3.4088   -0.7531 C   0  0  0  0  0  0  0  0  0  0  0  0
    3.0207   -2.8747   -0.2592 C   0  0  0  0  0  0  0  0  0  0  0  0
    4.7173   -4.6607   -0.2097 C   0  0  0  0  0  0  0  0  0  0  0  0
    5.9839   -5.2277   -0.3844 C   0  0  0  0  0  0  0  0  0  0  0  0
    6.9202   -4.4928   -1.1495 C   0  0  0  0  0  0  0  0  0  0  0  0
    6.4682   -3.3668   -1.8872 C   0  0  0  0  0  0  0  0  0  0  0  0
    7.3262   -3.0505   -3.0597 C   0  0  0  0  0  0  0  0  0  0  0  0
    6.7845   -2.7844   -4.1346 O   0  0  0  0  0  0  0  0  0  0  0  0
    8.8676   -3.1018   -2.8865 C   0  0  1  0  0  0  0  0  0  0  0  0
    9.3571   -4.0556   -1.7649 C   0  0  2  0  0  0  0  0  0  0  0  0
    8.2642   -4.9168   -1.1704 C   0  0  0  0  0  0  0  0  0  0  0  0
    8.6232   -6.0769   -0.5012 C   0  0  0  0  0  0  0  0  0  0  0  0
    7.6671   -6.8537    0.1382 C   0  0  0  0  0  0  0  0  0  0  0  0
    6.3153   -6.4868    0.2015 C   0  0  0  0  0  0  0  0  0  0  0  0
    5.2047   -7.4702    0.8382 C   0  0  0  0  0  0  0  0  0  0  0  0
    5.0376   -7.2394    2.5976 C   0  0  0  0  0  0  0  0  0  0  0  0
    5.5021   -8.3632    2.3324 C   0  0  0  0  0  0  0  0  0  0  0  0
    5.8479   -9.0677    1.3496 C   0  0  0  0  0  0  0  0  0  0  0  0
    9.8833   -6.5608   -0.4028 O   0  0  0  0  0  0  0  0  0  0  0  0
   10.9174   -5.9765   -1.1882 C   0  0  2  0  0  0  0  0  0  0  0  0
   10.5150   -4.9424   -2.2467 C   0  0  1  0  0  0  0  0  0  0  0  0
   10.1064   -5.5338   -3.5683 C   0  0  0  0  0  0  0  0  0  0  0  0
    9.5547   -4.6530   -4.5021 C   0  0  0  0  0  0  0  0  0  0  0  0
    9.4592   -3.3311   -4.1748 O   0  0  0  0  0  0  0  0  0  0  0  0
    9.1501   -5.0908   -5.7576 C   0  0  0  0  0  0  0  0  0  0  0  0
    8.5613   -4.1763   -6.7897 C   0  0  0  0  0  0  0  0  0  0  0  0
    9.2538   -6.4558   -6.0389 C   0  0  0  0  0  0  0  0  0  0  0  0
    9.7574   -7.3593   -5.0896 C   0  0  0  0  0  0  0  0  0  0  0  0
   10.2238   -6.9013   -3.8537 C   0  0  0  0  0  0  0  0  0  0  0  0
   10.7953   -7.8299   -2.9646 C   0  0  0  0  0  0  0  0  0  0  0  0
   11.5404   -7.2289   -1.8241 C   0  0  0  0  0  0  0  0  0  0  0  0
   12.5892   -7.7198   -1.4083 O   0  0  0  0  0  0  0  0  0  0  0  0
   10.6987   -9.2291   -3.1841 C   0  0  0  0  0  0  0  0  0  0  0  0
   11.2934  -10.1829   -2.1755 C   0  0  0  0  0  0  0  0  0  0  0  0
   10.1090   -9.6789   -4.3900 C   0  0  0  0  0  0  0  0  0  0  0  0
    9.7833   -8.7262   -5.3596 C   0  0  0  0  0  0  0  0  0  0  0  0
    9.8716  -11.4340   -4.7395 S   0  3  0  0  0  0  0  0  0  0  0  0
    9.0824  -11.5437   -6.3646 C   0  0  0  0  0  0  0  0  0  0  0  0
    7.6965  -10.9291   -6.5309 C   0  0  0  0  0  0  0  0  0  0  0  0
    6.6822  -11.4478   -5.5303 C   0  0  0  0  0  0  0  0  0  0  0  0
    7.1212  -11.1484   -4.1042 C   0  0  0  0  0  0  0  0  0  0  0  0
    8.4190  -11.8456   -3.7322 C   0  0  0  0  0  0  0  0  0  0  0  0
   11.8567   -5.3678   -0.3012 O   0  0  0  0  0  0  0  0  0  0  0  0
    9.2799   -1.7813   -2.5093 O   0  0  0  0  0  0  0  0  0  0  0  0
    6.9560   -0.5109   -2.3218 F   0  0  0  0  0  0  0  0  0  0  0  0
  1  2  1  0  0  0  0
  2  3  2  0  0  0  0
  2  7  1  0  0  0  0
  3  4  1  0  0  0  0
  4  5  2  0  0  0  0
  5  6  1  0  0  0  0
  5 53  1  0  0  0  0
  6  7  2  0  0  0  0
  6  8  1  0  0  0  0
  8  9  2  0  0  0  0
  8 14  1  0  0  0  0
  9 11  1  0  0  0  0
  9 10  1  0  0  0  0
 11 12  2  0  0  0  0
 12 13  1  0  0  0  0
 12 22  1  0  0  0  0
 13 14  2  0  0  0  0
 13 19  1  0  0  0  0
 14 15  1  0  0  0  0
 15 17  1  0  0  0  0
 15 16  2  0  0  0  0
 17 18  1  0  0  0  0
 17 32  1  0  0  0  0
 17 52  1  1  0  0  0
 18 19  1  1  0  0  0
 18 29  1  0  0  0  0
 19 20  2  0  0  0  0
 20 21  1  0  0  0  0
 20 27  1  0  0  0  0
 21 22  2  0  0  0  0
 22 23  1  0  0  0  0
 23 24  1  0  0  0  0
 23 26  1  0  0  0  0
 24 25  2  0  0  0  0
 25 26  2  0  0  0  0
 27 28  1  0  0  0  0
 28 29  1  0  0  0  0
 28 39  1  0  0  0  0
 28 51  1  1  0  0  0
 29 30  1  6  0  0  0
 30 31  2  0  0  0  0
 30 37  1  0  0  0  0
 31 32  1  0  0  0  0
 31 33  1  0  0  0  0
 33 35  2  0  0  0  0
 33 34  1  0  0  0  0
 35 36  1  0  0  0  0
 36 37  2  0  0  0  0
 36 44  1  0  0  0  0
 37 38  1  0  0  0  0
 38 39  1  0  0  0  0
 38 41  2  0  0  0  0
 39 40  2  0  0  0  0
 41 43  1  0  0  0  0
 41 42  1  0  0  0  0
 43 44  2  0  0  0  0
 43 45  1  0  0  0  0
 45 46  1  0  0  0  0
 45 50  1  0  0  0  0
 46 47  1  0  0  0  0
 47 48  1  0  0  0  0
 48 49  1  0  0  0  0
 49 50  1  0  0  0  0
M  CHG  1  45   1
M  END
$$$$