
 OpenBabel11212021183D

 53 61  0  0  1  0  0  0  0  0999 V2000
    2.6033   -2.2186   -4.9392 O   0  0  0  0  0  0  0  0  0  0  0  0
    2.5582   -1.3519   -3.8739 C   0  0  0  0  0  0  0  0  0  0  0  0
    2.3439   -1.7518   -2.6137 C   0  0  0  0  0  0  0  0  0  0  0  0
    2.0785   -3.0753   -2.3388 O   0  0  0  0  0  0  0  0  0  0  0  0
    2.4622   -3.5713   -1.0679 C   0  0  2  0  0  0  0  0  0  0  0  0
    1.9832   -4.9241   -0.8738 O   0  0  0  0  0  0  0  0  0  0  0  0
    2.4409   -5.9387   -1.7046 C   0  0  0  0  0  0  0  0  0  0  0  0
    2.3971   -7.2358   -1.3195 C   0  0  0  0  0  0  0  0  0  0  0  0
    2.8111   -8.2749   -2.1661 O   0  0  0  0  0  0  0  0  0  0  0  0
    3.2820   -8.0037   -3.4493 C   0  0  0  0  0  0  0  0  0  0  0  0
    3.3770   -6.7402   -3.8912 C   0  0  0  0  0  0  0  0  0  0  0  0
    2.9181   -5.5715   -3.0822 C   0  0  0  0  0  0  0  0  0  0  0  0
    3.9469   -6.3997   -5.2337 C   0  0  3  0  0  0  0  0  0  0  0  0
    5.1552   -5.6867   -5.0022 O   0  0  0  0  0  0  0  0  0  0  0  0
    5.9559   -5.4418   -6.0586 C   0  0  0  0  0  0  0  0  0  0  0  0
    6.9228   -4.6152   -5.9492 N   0  0  0  0  0  0  0  0  0  0  0  0
    5.7365   -6.1082   -7.2069 O   0  0  0  0  0  0  0  0  0  0  0  0
    4.8071   -7.1945   -7.3463 C   0  0  0  0  0  0  0  0  0  0  0  0
    4.2809   -7.6160   -6.0176 C   0  0  0  0  0  0  0  0  0  0  0  0
    4.1402   -8.8697   -5.5302 C   0  0  0  0  0  0  0  0  0  0  0  0
    3.6607   -9.0675   -4.2400 O   0  3  0  0  0  0  0  0  0  0  0  0
    4.4445  -10.1084   -6.2889 C   0  0  0  0  0  0  0  0  0  0  0  0
    4.2634  -11.3970   -5.6713 O   0  0  0  0  0  0  0  0  0  0  0  0
    3.3852  -10.9690   -6.7288 O   0  0  0  0  0  0  0  0  0  0  0  0
    1.9463   -7.6629    0.0438 C   0  0  0  0  0  0  0  0  0  0  0  0
    2.2231   -6.7772    1.0269 N   0  0  0  0  0  0  0  0  0  0  0  0
    1.8357   -7.0258    2.2661 N   0  3  0  0  0  0  0  0  0  0  0  0
    2.1050   -6.1105    3.2169 F   0  0  0  0  0  0  0  0  0  0  0  0
    1.2111   -8.1560    2.6080 C   0  0  0  0  0  0  0  0  0  0  0  0
    0.9349   -9.1279    1.6523 C   0  0  0  0  0  0  0  0  0  0  0  0
    1.3040   -8.8913    0.3173 C   0  0  0  0  0  0  0  0  0  0  0  0
    0.9734   -9.8948   -0.6253 C   0  0  0  0  0  0  0  0  0  0  0  0
    0.2974  -11.0648   -0.2539 C   0  0  0  0  0  0  0  0  0  0  0  0
   -0.0575  -12.0435   -1.2819 C   0  0  0  0  0  0  0  0  0  0  0  0
    0.3528  -11.9074   -2.4253 O   0  0  0  0  0  0  0  0  0  0  0  0
   -0.9244  -13.2005   -0.8433 C   0  0  0  0  0  0  0  0  0  0  0  0
   -0.9952  -14.2046   -1.5339 O   0  0  0  0  0  0  0  0  0  0  0  0
   -1.6497  -12.9755    0.4682 C   0  0  1  0  0  0  0  0  0  0  0  0
   -0.8242  -12.3441    1.4694 O   0  0  0  0  0  0  0  0  0  0  0  0
   -0.0764  -11.2791    1.0589 C   0  0  0  0  0  0  0  0  0  0  0  0
    0.2705  -10.3164    2.0062 C   0  0  0  0  0  0  0  0  0  0  0  0
   -0.0840  -10.4952    3.2871 F   0  0  0  0  0  0  0  0  0  0  0  0
   -2.9806  -12.2848    0.2691 C   0  0  1  0  0  0  0  0  0  0  0  0
   -3.9313  -12.9754   -0.5603 O   0  0  0  0  0  0  0  0  0  0  0  0
   -3.5381  -11.6526    1.4307 O   0  0  0  0  0  0  0  0  0  0  0  0
   -3.1966  -10.8558    0.4132 C   0  0  0  0  0  0  0  0  0  0  0  0
   -2.4405   -9.8989    0.3441 O   0  0  0  0  0  0  0  0  0  0  0  0
    1.8814   -2.7266    0.0503 C   0  0  0  0  0  0  0  0  0  0  0  0
    1.3122   -3.1592    1.0439 O   0  0  0  0  0  0  0  0  0  0  0  0
    2.1480   -1.2568   -0.1464 C   0  0  0  0  0  0  0  0  0  0  0  0
    2.3167   -0.5466    0.8309 O   0  0  0  0  0  0  0  0  0  0  0  0
    2.3095   -0.7099   -1.5498 C   0  0  0  0  0  0  0  0  0  0  0  0
    2.4195    0.4840   -1.7661 O   0  0  0  0  0  0  0  0  0  0  0  0
  1  2  1  0  0  0  0
  2  3  2  0  0  0  0
  3  4  1  0  0  0  0
  3 52  1  0  0  0  0
  4  5  1  0  0  0  0
  5  6  1  1  0  0  0
  5 48  1  0  0  0  0
  6  7  1  0  0  0  0
  7  8  2  0  0  0  0
  7 12  1  0  0  0  0
  8  9  1  0  0  0  0
  8 25  1  0  0  0  0
  9 10  1  0  0  0  0
 10 11  2  0  0  0  0
 10 21  1  0  0  0  0
 11 12  1  0  0  0  0
 11 13  1  0  0  0  0
 13 14  1  0  0  0  0
 13 19  1  0  0  0  0
 14 15  1  0  0  0  0
 15 16  2  0  0  0  0
 15 17  1  0  0  0  0
 17 18  1  0  0  0  0
 18 19  1  0  0  0  0
 19 20  2  0  0  0  0
 20 21  1  0  0  0  0
 20 22  1  0  0  0  0
 22 23  1  0  0  0  0
 22 24  1  0  0  0  0
 23 24  1  0  0  0  0
 25 26  2  0  0  0  0
 25 31  1  0  0  0  0
 26 27  1  0  0  0  0
 27 28  1  0  0  0  0
 27 29  2  0  0  0  0
 29 30  1  0  0  0  0
 30 31  2  0  0  0  0
 30 41  1  0  0  0  0
 31 32  1  0  0  0  0
 32 33  2  0  0  0  0
 33 34  1  0  0  0  0
 33 40  1  0  0  0  0
 34 35  2  0  0  0  0
 34 36  1  0  0  0  0
 36 37  2  0  0  0  0
 38 36  1  6  0  0  0
 38 39  1  0  0  0  0
 38 43  1  0  0  0  0
 39 40  1  0  0  0  0
 40 41  2  0  0  0  0
 41 42  1  0  0  0  0
 43 44  1  6  0  0  0
 43 45  1  0  0  0  0
 43 46  1  0  0  0  0
 45 46  1  0  0  0  0
 46 47  2  0  0  0  0
 48 49  2  0  0  0  0
 48 50  1  0  0  0  0
 50 51  2  0  0  0  0
 50 52  1  0  0  0  0
 52 53  2  0  0  0  0
M  CHG  2  21   1  27   1
M  END
$$$$