
 OpenBabel11232020013D

 52 60  0  0  1  0  0  0  0  0999 V2000
   -0.4429    0.0233   -3.3299 O   0  0  0  0  0  0  0  0  0  0  0  0
   -0.2777    0.0454   -1.9689 C   0  0  0  0  0  0  0  0  0  0  0  0
    0.4231    0.9933   -1.3302 C   0  0  0  0  0  0  0  0  0  0  0  0
    1.0690    1.9919   -2.0334 O   0  0  0  0  0  0  0  0  0  0  0  0
    1.5170    3.1607   -1.3617 C   0  0  2  0  0  0  0  0  0  0  0  0
    2.6769    3.6755   -2.0569 O   0  0  0  0  0  0  0  0  0  0  0  0
    2.7620    4.9829   -2.5145 C   0  0  0  0  0  0  0  0  0  0  0  0
    3.8418    5.4337   -3.2055 C   0  0  0  0  0  0  0  0  0  0  0  0
    3.9204    6.7599   -3.6583 O   0  0  0  0  0  0  0  0  0  0  0  0
    3.0086    7.7039   -3.2269 C   0  0  0  0  0  0  0  0  0  0  0  0
    1.9126    7.3454   -2.5485 C   0  0  0  0  0  0  0  0  0  0  0  0
    1.6286    5.9203   -2.2088 C   0  0  0  0  0  0  0  0  0  0  0  0
    0.9286    8.3701   -2.0962 C   0  0  3  0  0  0  0  0  0  0  0  0
    0.6047    8.1578   -0.7292 O   0  0  0  0  0  0  0  0  0  0  0  0
   -0.4270    8.9231   -0.2859 C   0  0  0  0  0  0  0  0  0  0  0  0
   -1.1299    8.6181    0.6611 O   0  0  0  0  0  0  0  0  0  0  0  0
   -0.6051   10.0659   -1.0145 O   0  0  0  0  0  0  0  0  0  0  0  0
    0.6166   10.6759   -1.3563 C   0  0  3  0  0  0  0  0  0  0  0  0
    1.4576    9.7745   -2.1934 C   0  0  0  0  0  0  0  0  0  0  0  0
    2.5739   10.0831   -2.9013 C   0  0  0  0  0  0  0  0  0  0  0  0
    3.2905    9.0419   -3.4939 N   0  0  0  0  0  0  0  0  0  0  0  0
    3.0998   11.4454   -3.0590 C   0  0  0  0  0  0  0  0  0  0  0  0
    2.2212   12.4960   -3.6511 N   0  3  0  0  0  0  0  0  0  0  0  0
    2.9476   12.1030   -4.3783 N   0  3  0  0  0  0  0  0  0  0  0  0
    0.3624   11.8257   -2.1700 O   0  0  0  0  0  0  0  0  0  0  0  0
    5.0207    4.6039   -3.6101 C   0  0  0  0  0  0  0  0  0  0  0  0
    4.8362    3.2561   -3.8990 C   0  0  0  0  0  0  0  0  0  0  0  0
    5.8107    2.4455   -4.3456 N   0  0  0  0  0  0  0  0  0  0  0  0
    7.0508    2.9506   -4.5575 N   0  0  0  0  0  0  0  0  0  0  0  0
    7.3196    4.2368   -4.3219 C   0  0  0  0  0  0  0  0  0  0  0  0
    6.3361    5.1206   -3.8276 C   0  0  0  0  0  0  0  0  0  0  0  0
    6.7446    6.4598   -3.5979 C   0  0  0  0  0  0  0  0  0  0  0  0
    8.0261    6.9157   -3.9273 C   0  0  0  0  0  0  0  0  0  0  0  0
    8.9634    6.0420   -4.4350 C   0  0  0  0  0  0  0  0  0  0  0  0
    8.6043    4.7036   -4.5983 C   0  0  0  0  0  0  0  0  0  0  0  0
   10.2364    6.3757   -4.7781 O   0  0  0  0  0  0  0  0  0  0  0  0
   10.5574    7.7660   -4.9214 C   0  0  2  0  0  0  0  0  0  0  0  0
    9.7638    8.7530   -4.0821 C   0  0  0  0  0  0  0  0  0  0  0  0
   10.1657    9.8474   -3.7146 O   0  0  0  0  0  0  0  0  0  0  0  0
    8.3523    8.3314   -3.7501 C   0  0  0  0  0  0  0  0  0  0  0  0
    7.5013    9.1377   -3.3882 O   0  0  0  0  0  0  0  0  0  0  0  0
   10.6246    8.1043   -6.3875 C   0  0  1  0  0  0  0  0  0  0  0  0
   11.6008    7.3761   -7.1578 O   0  0  0  0  0  0  0  0  0  0  0  0
    9.3692    8.2377   -7.0457 O   0  0  0  0  0  0  0  0  0  0  0  0
   10.1281    9.3504   -6.9740 C   0  0  0  0  0  0  0  0  0  0  0  0
    9.8182   10.4231   -6.5368 O   0  0  0  0  0  0  0  0  0  0  0  0
    1.8777    3.0411    0.1132 C   0  0  0  0  0  0  0  0  0  0  0  0
    2.7217    3.7035    0.7001 O   0  0  0  0  0  0  0  0  0  0  0  0
    0.9862    2.0923    0.8511 C   0  0  0  0  0  0  0  0  0  0  0  0
    0.5786    2.3792    1.9650 O   0  0  0  0  0  0  0  0  0  0  0  0
    0.5158    0.8525    0.1475 C   0  0  0  0  0  0  0  0  0  0  0  0
    0.2509   -0.1640    0.7664 O   0  0  0  0  0  0  0  0  0  0  0  0
  1  2  1  0  0  0  0
  2  3  2  0  0  0  0
  3  4  1  0  0  0  0
  3 51  1  0  0  0  0
  4  5  1  0  0  0  0
  5  6  1  6  0  0  0
  5 47  1  0  0  0  0
  6  7  1  0  0  0  0
  7  8  2  0  0  0  0
  7 12  1  0  0  0  0
  8  9  1  0  0  0  0
  8 26  1  0  0  0  0
  9 10  1  0  0  0  0
 10 11  2  0  0  0  0
 10 21  1  0  0  0  0
 11 12  1  0  0  0  0
 11 13  1  0  0  0  0
 13 14  1  0  0  0  0
 13 19  1  0  0  0  0
 14 15  1  0  0  0  0
 15 16  2  0  0  0  0
 15 17  1  0  0  0  0
 17 18  1  0  0  0  0
 18 19  1  0  0  0  0
 18 25  1  0  0  0  0
 19 20  2  0  0  0  0
 20 21  1  0  0  0  0
 20 22  1  0  0  0  0
 22 23  1  0  0  0  0
 22 24  1  0  0  0  0
 23 24  3  0  0  0  0
 26 27  2  0  0  0  0
 26 31  1  0  0  0  0
 27 28  1  0  0  0  0
 28 29  2  0  0  0  0
 29 30  1  0  0  0  0
 30 31  2  0  0  0  0
 30 35  1  0  0  0  0
 31 32  1  0  0  0  0
 32 33  2  0  0  0  0
 33 34  1  0  0  0  0
 33 40  1  0  0  0  0
 34 35  2  0  0  0  0
 34 36  1  0  0  0  0
 37 36  1  6  0  0  0
 37 38  1  0  0  0  0
 37 42  1  0  0  0  0
 38 39  2  0  0  0  0
 38 40  1  0  0  0  0
 40 41  2  0  0  0  0
 42 43  1  6  0  0  0
 42 44  1  0  0  0  0
 42 45  1  0  0  0  0
 44 45  1  0  0  0  0
 45 46  2  0  0  0  0
 47 48  2  0  0  0  0
 47 49  1  0  0  0  0
 49 50  2  0  0  0  0
 49 51  1  0  0  0  0
 51 52  2  0  0  0  0
M  CHG  2  23   1  24   1
M  END
$$$$