
 OpenBabel10242013383D

 51 58  0  0  1  0  0  0  0  0999 V2000
    6.4515    4.2494   -6.4124 O   0  0  0  0  0  0  0  0  0  0  0  0
    6.4141    2.8813   -6.3390 C   0  0  0  0  0  0  0  0  0  0  0  0
    5.7057    2.2225   -5.4143 C   0  0  0  0  0  0  0  0  0  0  0  0
    5.0032    2.8891   -4.4289 O   0  0  0  0  0  0  0  0  0  0  0  0
    3.6667    2.4139   -4.2910 C   0  0  2  0  0  0  0  0  0  0  0  0
    2.9260    3.1863   -3.3313 O   0  0  0  0  0  0  0  0  0  0  0  0
    2.8023    4.5488   -3.5697 C   0  0  0  0  0  0  0  0  0  0  0  0
    2.6928    5.4251   -2.5481 C   0  0  0  0  0  0  0  0  0  0  0  0
    2.5438    6.7998   -2.7299 O   0  0  0  0  0  0  0  0  0  0  0  0
    2.4598    7.3110   -4.0167 C   0  0  0  0  0  0  0  0  0  0  0  0
    2.5173    6.5115   -5.0913 C   0  0  0  0  0  0  0  0  0  0  0  0
    2.7124    5.0364   -4.9962 C   0  0  0  0  0  0  0  0  0  0  0  0
    2.4088    7.1356   -6.4370 C   0  0  0  0  0  0  0  0  0  0  0  0
    2.4177    6.3963   -7.4973 N   0  0  0  0  0  0  0  0  0  0  0  0
    2.3204    6.9904   -8.7374 C   0  0  0  0  0  0  0  0  0  0  0  0
    2.3310    6.2668   -9.7246 O   0  0  0  0  0  0  0  0  0  0  0  0
    2.2221    8.3547   -8.9200 N   0  0  0  0  0  0  0  0  0  0  0  0
    2.2090    9.1171   -7.8828 C   0  0  0  0  0  0  0  0  0  0  0  0
    2.3011    8.6146   -6.5078 C   0  0  0  0  0  0  0  0  0  0  0  0
    2.2751    9.3396   -5.3673 C   0  0  0  0  0  0  0  0  0  0  0  0
    2.3210    8.6707   -4.1424 N   0  0  0  0  0  0  0  0  0  0  0  0
    2.1895   10.8622   -5.3588 C   0  0  0  0  0  0  0  0  0  0  0  0
    0.4822   11.3580   -5.3145 Cl  0  0  0  0  0  0  0  0  0  0  0  0
    3.0570   11.5633   -3.9659 Cl  0  0  0  0  0  0  0  0  0  0  0  0
    2.7281    5.0276   -1.1285 C   0  0  0  0  0  0  0  0  0  0  0  0
    3.9630    5.0423   -0.5819 N   0  0  0  0  0  0  0  0  0  0  0  0
    4.0256    4.7636    0.7222 C   0  0  0  0  0  0  0  0  0  0  0  0
    2.9840    4.5262    1.5296 N   0  0  0  0  0  0  0  0  0  0  0  0
    1.7713    4.5038    0.9710 C   0  0  0  0  0  0  0  0  0  0  0  0
    1.5640    4.7217   -0.3994 C   0  0  0  0  0  0  0  0  0  0  0  0
    0.2531    4.6033   -0.9278 C   0  0  0  0  0  0  0  0  0  0  0  0
   -0.8139    4.2601   -0.0921 C   0  0  0  0  0  0  0  0  0  0  0  0
   -0.6198    4.1265    1.2749 C   0  0  0  0  0  0  0  0  0  0  0  0
    0.6736    4.2453    1.7869 C   0  0  0  0  0  0  0  0  0  0  0  0
   -1.6042    3.8598    2.1849 O   0  0  0  0  0  0  0  0  0  0  0  0
   -2.9634    3.9094    1.7257 C   0  0  2  0  0  0  0  0  0  0  0  0
   -3.1556    3.4242    0.3126 C   0  0  0  0  0  0  0  0  0  0  0  0
   -4.0536    2.6860   -0.0633 O   0  0  0  0  0  0  0  0  0  0  0  0
   -2.1380    3.9756   -0.6550 C   0  0  0  0  0  0  0  0  0  0  0  0
   -2.4080    4.1569   -1.8304 O   0  0  0  0  0  0  0  0  0  0  0  0
   -3.5373    5.2868    1.9071 C   0  0  1  0  0  0  0  0  0  0  0  0
   -2.8748    6.3711    1.2198 O   0  0  0  0  0  0  0  0  0  0  0  0
   -4.9650    5.3793    1.8731 O   0  0  0  0  0  0  0  0  0  0  0  0
   -4.3701    5.6079    3.0522 C   0  0  0  0  0  0  0  0  0  0  0  0
   -4.5360    5.0724    4.1333 O   0  0  0  0  0  0  0  0  0  0  0  0
    3.6457    0.9591   -3.8386 C   0  0  0  0  0  0  0  0  0  0  0  0
    2.8295    0.4591   -3.0762 O   0  0  0  0  0  0  0  0  0  0  0  0
    4.7025    0.1060   -4.5041 C   0  0  0  0  0  0  0  0  0  0  0  0
    4.7465   -1.0966   -4.2905 O   0  0  0  0  0  0  0  0  0  0  0  0
    5.6853    0.7372   -5.4673 C   0  0  0  0  0  0  0  0  0  0  0  0
    6.3518    0.0697   -6.2408 O   0  0  0  0  0  0  0  0  0  0  0  0
  1  2  1  0  0  0  0
  2  3  2  0  0  0  0
  3  4  1  0  0  0  0
  3 50  1  0  0  0  0
  4  5  1  0  0  0  0
  5  6  1  1  0  0  0
  5 46  1  0  0  0  0
  6  7  1  0  0  0  0
  7  8  2  0  0  0  0
  7 12  1  0  0  0  0
  8  9  1  0  0  0  0
  8 25  1  0  0  0  0
  9 10  1  0  0  0  0
 10 11  2  0  0  0  0
 10 21  1  0  0  0  0
 11 12  1  0  0  0  0
 11 13  1  0  0  0  0
 13 14  2  0  0  0  0
 13 19  1  0  0  0  0
 14 15  1  0  0  0  0
 15 16  2  0  0  0  0
 15 17  1  0  0  0  0
 17 18  2  0  0  0  0
 18 19  1  0  0  0  0
 19 20  2  0  0  0  0
 20 21  1  0  0  0  0
 20 22  1  0  0  0  0
 22 23  1  0  0  0  0
 22 24  1  0  0  0  0
 25 26  2  0  0  0  0
 25 30  1  0  0  0  0
 26 27  1  0  0  0  0
 27 28  2  0  0  0  0
 28 29  1  0  0  0  0
 29 30  2  0  0  0  0
 29 34  1  0  0  0  0
 30 31  1  0  0  0  0
 31 32  2  0  0  0  0
 32 33  1  0  0  0  0
 32 39  1  0  0  0  0
 33 34  2  0  0  0  0
 33 35  1  0  0  0  0
 36 35  1  6  0  0  0
 36 37  1  0  0  0  0
 36 41  1  0  0  0  0
 37 38  2  0  0  0  0
 37 39  1  0  0  0  0
 39 40  2  0  0  0  0
 41 42  1  6  0  0  0
 41 43  1  0  0  0  0
 41 44  1  0  0  0  0
 43 44  1  0  0  0  0
 44 45  2  0  0  0  0
 46 47  2  0  0  0  0
 46 48  1  0  0  0  0
 48 49  2  0  0  0  0
 48 50  1  0  0  0  0
 50 51  2  0  0  0  0
M  END
$$$$