
 OpenBabel11262000223D

 54 62  0  0  1  0  0  0  0  0999 V2000
    5.0489   -2.6016    5.8338 O   0  0  0  0  0  0  0  0  0  0  0  0
    5.4833   -2.0321    4.6629 C   0  0  0  0  0  0  0  0  0  0  0  0
    4.8638   -2.2500    3.4979 C   0  0  0  0  0  0  0  0  0  0  0  0
    3.7471   -3.0628    3.4404 O   0  0  0  0  0  0  0  0  0  0  0  0
    3.1009   -3.1070    2.1866 C   0  0  2  0  0  0  0  0  0  0  0  0
    2.0495   -4.1328    2.1504 O   0  0  0  0  0  0  0  0  0  0  0  0
    2.3942   -5.4618    2.4052 C   0  0  0  0  0  0  0  0  0  0  0  0
    1.6986   -6.4702    1.8359 C   0  0  0  0  0  0  0  0  0  0  0  0
    1.9679   -7.8273    2.1008 O   0  0  0  0  0  0  0  0  0  0  0  0
    3.0483   -8.1756    2.9502 C   0  0  0  0  0  0  0  0  0  0  0  0
    3.7991   -7.2187    3.5307 C   0  0  0  0  0  0  0  0  0  0  0  0
    3.5336   -5.7565    3.3500 C   0  0  0  0  0  0  0  0  0  0  0  0
    5.0169   -7.5378    4.3684 C   0  0  3  0  0  0  0  0  0  0  0  0
    4.8316   -7.0341    5.6686 O   0  0  0  0  0  0  0  0  0  0  0  0
    5.8773   -7.2353    6.5273 C   0  0  0  0  0  0  0  0  0  0  0  0
    6.0330   -6.5110    7.4956 O   0  0  0  0  0  0  0  0  0  0  0  0
    6.7082   -8.2749    6.2440 O   0  0  0  0  0  0  0  0  0  0  0  0
    6.3829   -9.2310    5.3561 C   0  0  0  0  0  0  0  0  0  0  0  0
    7.0511  -10.2358    5.1709 O   0  0  0  0  0  0  0  0  0  0  0  0
    5.2070   -8.9823    4.5228 C   0  0  0  0  0  0  0  0  0  0  0  0
    4.4198   -9.9165    3.9491 C   0  0  0  0  0  0  0  0  0  0  0  0
    3.3356   -9.5164    3.1627 O   0  3  0  0  0  0  0  0  0  0  0  0
    4.5774  -11.3935    4.0623 C   0  0  0  0  0  0  0  0  0  0  0  0
    3.4087  -12.2341    3.9916 O   0  0  0  0  0  0  0  0  0  0  0  0
    4.3505  -12.2187    2.9054 O   0  0  0  0  0  0  0  0  0  0  0  0
    0.5825   -6.1750    0.8838 C   0  0  0  0  0  0  0  0  0  0  0  0
   -0.7148   -6.0072    1.3882 C   0  0  0  0  0  0  0  0  0  0  0  0
   -1.7074   -5.6366    0.5722 N   0  3  0  0  0  0  0  0  0  0  0  0
   -2.9577   -5.5067    1.0638 F   0  0  0  0  0  0  0  0  0  0  0  0
   -1.5073   -5.3845   -0.7063 N   0  0  0  0  0  0  0  0  0  0  0  0
   -0.2724   -5.5314   -1.2230 C   0  0  0  0  0  0  0  0  0  0  0  0
    0.8044   -5.9599   -0.4575 N   0  3  0  0  0  0  0  0  0  0  0  0
    2.0125   -6.1491   -1.0612 C   0  0  0  0  0  0  0  0  0  0  0  0
    2.2035   -5.8986   -2.4185 C   0  0  0  0  0  0  0  0  0  0  0  0
    3.5023   -6.1674   -3.0136 C   0  0  0  0  0  0  0  0  0  0  0  0
    4.3461   -6.7214   -2.3301 O   0  0  0  0  0  0  0  0  0  0  0  0
    3.6840   -5.8106   -4.4706 C   0  0  0  0  0  0  0  0  0  0  0  0
    4.5974   -6.3097   -5.1043 O   0  0  0  0  0  0  0  0  0  0  0  0
    2.6563   -4.8348   -5.0108 C   0  0  1  0  0  0  0  0  0  0  0  0
    1.3167   -5.0704   -4.5042 O   0  0  0  0  0  0  0  0  0  0  0  0
    1.1790   -5.4180   -3.1938 C   0  0  0  0  0  0  0  0  0  0  0  0
   -0.0594   -5.2593   -2.5834 C   0  0  0  0  0  0  0  0  0  0  0  0
   -1.0951   -4.8221   -3.3145 F   0  0  0  0  0  0  0  0  0  0  0  0
    3.1120   -3.4057   -4.8337 C   0  0  1  0  0  0  0  0  0  0  0  0
    4.3379   -3.0400   -5.4830 O   0  0  0  0  0  0  0  0  0  0  0  0
    2.0923   -2.4062   -4.8267 O   0  0  0  0  0  0  0  0  0  0  0  0
    2.7526   -2.5951   -3.6672 C   0  0  0  0  0  0  0  0  0  0  0  0
    2.3453   -2.9236   -2.5734 O   0  0  0  0  0  0  0  0  0  0  0  0
    4.0327   -3.3294    0.9881 C   0  0  0  0  0  0  0  0  0  0  0  0
    3.7133   -4.1031    0.0742 O   0  0  0  0  0  0  0  0  0  0  0  0
    5.3678   -2.6243    1.0477 C   0  0  3  0  0  0  0  0  0  0  0  0
    5.4878   -1.7203    2.2495 C   0  0  0  0  0  0  0  0  0  0  0  0
    6.0916   -0.6555    2.2270 O   0  0  0  0  0  0  0  0  0  0  0  0
    6.3609   -3.5642    1.0522 F   0  0  0  0  0  0  0  0  0  0  0  0
  1  2  1  0  0  0  0
  2  3  2  0  0  0  0
  3  4  1  0  0  0  0
  3 52  1  0  0  0  0
  4  5  1  0  0  0  0
  5  6  1  1  0  0  0
  5 49  1  0  0  0  0
  6  7  1  0  0  0  0
  7  8  2  0  0  0  0
  7 12  1  0  0  0  0
  8  9  1  0  0  0  0
  8 26  1  0  0  0  0
  9 10  1  0  0  0  0
 10 11  2  0  0  0  0
 10 22  1  0  0  0  0
 11 12  1  0  0  0  0
 11 13  1  0  0  0  0
 13 14  1  0  0  0  0
 13 20  1  0  0  0  0
 14 15  1  0  0  0  0
 15 16  2  0  0  0  0
 15 17  1  0  0  0  0
 17 18  1  0  0  0  0
 18 19  2  0  0  0  0
 18 20  1  0  0  0  0
 20 21  2  0  0  0  0
 21 22  1  0  0  0  0
 21 23  1  0  0  0  0
 23 24  1  0  0  0  0
 23 25  1  0  0  0  0
 24 25  1  0  0  0  0
 26 27  2  0  0  0  0
 26 32  1  0  0  0  0
 27 28  1  0  0  0  0
 28 29  1  0  0  0  0
 28 30  2  0  0  0  0
 30 31  1  0  0  0  0
 31 32  2  0  0  0  0
 31 42  1  0  0  0  0
 32 33  1  0  0  0  0
 33 34  2  0  0  0  0
 34 35  1  0  0  0  0
 34 41  1  0  0  0  0
 35 36  2  0  0  0  0
 35 37  1  0  0  0  0
 37 38  2  0  0  0  0
 39 37  1  1  0  0  0
 39 40  1  0  0  0  0
 39 44  1  0  0  0  0
 40 41  1  0  0  0  0
 41 42  2  0  0  0  0
 42 43  1  0  0  0  0
 44 45  1  6  0  0  0
 44 46  1  0  0  0  0
 44 47  1  0  0  0  0
 46 47  1  0  0  0  0
 47 48  2  0  0  0  0
 49 50  2  0  0  0  0
 49 51  1  0  0  0  0
 51 52  1  0  0  0  0
 51 54  1  0  0  0  0
 52 53  2  0  0  0  0
M  CHG  3  22   1  28   1  32   1
M  END
$$$$