
 OpenBabel10192022343D

 51 59  0  0  1  0  0  0  0  0999 V2000
   12.3759   -4.1297   -0.3728 O   0  0  0  0  0  0  0  0  0  0  0  0
   11.3063   -3.7346   -0.1090 C   0  0  0  0  0  0  0  0  0  0  0  0
   10.1154   -3.2748    0.1488 C   0  0  0  0  0  0  0  0  0  0  0  0
    9.5129   -2.4973   -0.8180 O   0  0  0  0  0  0  0  0  0  0  0  0
    8.0800   -2.4924   -0.7545 C   0  0  2  0  0  0  0  0  0  0  0  0
    7.5241   -1.7387   -1.8418 O   0  0  0  0  0  0  0  0  0  0  0  0
    7.8285   -2.1722   -3.1290 C   0  0  0  0  0  0  0  0  0  0  0  0
    7.9026   -1.3059   -4.1647 C   0  0  0  0  0  0  0  0  0  0  0  0
    8.2475   -1.6875   -5.4585 O   0  0  0  0  0  0  0  0  0  0  0  0
    8.5361   -3.0152   -5.7220 C   0  0  0  0  0  0  0  0  0  0  0  0
    8.3974   -3.9614   -4.7824 C   0  0  0  0  0  0  0  0  0  0  0  0
    7.9939   -3.6556   -3.3820 C   0  0  0  0  0  0  0  0  0  0  0  0
    8.7122   -5.3671   -5.1548 C   0  0  0  0  0  0  0  0  0  0  0  0
    8.5515   -6.3226   -4.2994 N   0  0  0  0  0  0  0  0  0  0  0  0
    8.8515   -7.6172   -4.6778 C   0  0  0  0  0  0  0  0  0  0  0  0
    8.6120   -8.5153   -3.8814 O   0  0  0  0  0  0  0  0  0  0  0  0
    9.4106   -7.9443   -5.8984 N   0  0  0  0  0  0  0  0  0  0  0  0
    9.5811   -7.0111   -6.7702 C   0  0  0  0  0  0  0  0  0  0  0  0
    9.2300   -5.6139   -6.5195 C   0  0  0  0  0  0  0  0  0  0  0  0
    9.3666   -4.5872   -7.3828 C   0  0  0  0  0  0  0  0  0  0  0  0
    8.9911   -3.3147   -6.9793 N   0  0  0  0  0  0  0  0  0  0  0  0
    9.9066   -4.6973   -8.7585 C   0  0  0  0  0  0  0  0  0  0  0  0
    9.0581   -4.9805   -9.8802 O   0  0  0  0  0  0  0  0  0  0  0  0
    9.6698   -3.6822   -9.7517 O   0  0  0  0  0  0  0  0  0  0  0  0
    7.5840    0.1291   -4.0646 C   0  0  0  0  0  0  0  0  0  0  0  0
    6.3004    0.4232   -4.3649 N   0  0  0  0  0  0  0  0  0  0  0  0
    5.9723    1.7171   -4.3379 C   0  0  0  0  0  0  0  0  0  0  0  0
    6.7929    2.7306   -4.0349 N   0  0  0  0  0  0  0  0  0  0  0  0
    8.0613    2.4240   -3.7540 C   0  0  0  0  0  0  0  0  0  0  0  0
    8.5447    1.1058   -3.7680 C   0  0  0  0  0  0  0  0  0  0  0  0
    9.9171    0.8621   -3.5260 C   0  0  0  0  0  0  0  0  0  0  0  0
   10.7780    1.9281   -3.2634 C   0  0  0  0  0  0  0  0  0  0  0  0
   10.2869    3.2240   -3.1775 C   0  0  0  0  0  0  0  0  0  0  0  0
    8.9383    3.4584   -3.4463 C   0  0  0  0  0  0  0  0  0  0  0  0
   11.0387    4.3171   -2.8451 O   0  0  0  0  0  0  0  0  0  0  0  0
   12.3137    4.0590   -2.2328 C   0  0  2  0  0  0  0  0  0  0  0  0
   13.0600    2.9292   -2.8923 C   0  0  0  0  0  0  0  0  0  0  0  0
   14.2337    2.9561   -3.2291 O   0  0  0  0  0  0  0  0  0  0  0  0
   12.2160    1.6953   -3.0947 C   0  0  0  0  0  0  0  0  0  0  0  0
   12.7044    0.5780   -3.1079 O   0  0  0  0  0  0  0  0  0  0  0  0
   12.1658    3.8330   -0.7521 C   0  0  1  0  0  0  0  0  0  0  0  0
   11.3191    2.7411   -0.3279 O   0  0  0  0  0  0  0  0  0  0  0  0
   13.3644    3.9501    0.0194 O   0  0  0  0  0  0  0  0  0  0  0  0
   12.4344    4.9055    0.1959 C   0  0  0  0  0  0  0  0  0  0  0  0
   12.5180    6.1088    0.0748 O   0  0  0  0  0  0  0  0  0  0  0  0
    7.6169   -1.9088    0.5754 C   0  0  0  0  0  0  0  0  0  0  0  0
    6.7188   -1.0973    0.7373 O   0  0  0  0  0  0  0  0  0  0  0  0
    8.3725   -2.4797    1.7544 C   0  0  0  0  0  0  0  0  0  0  0  0
    8.0600   -2.1843    2.8966 O   0  0  0  0  0  0  0  0  0  0  0  0
    9.5483   -3.4004    1.5054 C   0  0  0  0  0  0  0  0  0  0  0  0
    9.9591   -4.1682    2.3577 O   0  0  0  0  0  0  0  0  0  0  0  0
  1  2  2  0  0  0  0
  2  3  2  0  0  0  0
  3  4  1  0  0  0  0
  3 50  1  0  0  0  0
  4  5  1  0  0  0  0
  5  6  1  6  0  0  0
  5 46  1  0  0  0  0
  6  7  1  0  0  0  0
  7  8  2  0  0  0  0
  7 12  1  0  0  0  0
  8  9  1  0  0  0  0
  8 25  1  0  0  0  0
  9 10  1  0  0  0  0
 10 11  2  0  0  0  0
 10 21  1  0  0  0  0
 11 12  1  0  0  0  0
 11 13  1  0  0  0  0
 13 14  2  0  0  0  0
 13 19  1  0  0  0  0
 14 15  1  0  0  0  0
 15 16  2  0  0  0  0
 15 17  1  0  0  0  0
 17 18  2  0  0  0  0
 18 19  1  0  0  0  0
 19 20  2  0  0  0  0
 20 21  1  0  0  0  0
 20 22  1  0  0  0  0
 22 23  1  0  0  0  0
 22 24  1  0  0  0  0
 23 24  1  0  0  0  0
 25 26  2  0  0  0  0
 25 30  1  0  0  0  0
 26 27  1  0  0  0  0
 27 28  2  0  0  0  0
 28 29  1  0  0  0  0
 29 30  2  0  0  0  0
 29 34  1  0  0  0  0
 30 31  1  0  0  0  0
 31 32  2  0  0  0  0
 32 33  1  0  0  0  0
 32 39  1  0  0  0  0
 33 34  2  0  0  0  0
 33 35  1  0  0  0  0
 36 35  1  6  0  0  0
 36 37  1  0  0  0  0
 36 41  1  0  0  0  0
 37 38  2  0  0  0  0
 37 39  1  0  0  0  0
 39 40  2  0  0  0  0
 41 42  1  1  0  0  0
 41 43  1  0  0  0  0
 41 44  1  0  0  0  0
 43 44  1  0  0  0  0
 44 45  2  0  0  0  0
 46 47  2  0  0  0  0
 46 48  1  0  0  0  0
 48 49  2  0  0  0  0
 48 50  1  0  0  0  0
 50 51  2  0  0  0  0
M  END
$$$$