
 OpenBabel11212022263D

 54 62  0  0  1  0  0  0  0  0999 V2000
    1.1334   -3.8334   -1.2014 N   0  0  0  0  0  0  0  0  0  0  0  0
    2.2175   -3.7039   -0.8222 C   0  0  0  0  0  0  0  0  0  0  0  0
    3.6362   -3.4415   -0.5371 C   0  0  3  0  0  0  0  0  0  0  0  0
    4.3732   -3.1756   -1.7465 O   0  0  0  0  0  0  0  0  0  0  0  0
    4.0265   -1.9541   -2.3904 C   0  0  2  0  0  0  0  0  0  0  0  0
    4.6513   -1.8117   -3.6792 O   0  0  0  0  0  0  0  0  0  0  0  0
    4.3832   -2.7149   -4.6920 C   0  0  0  0  0  0  0  0  0  0  0  0
    4.5312   -2.3716   -5.9940 C   0  0  0  0  0  0  0  0  0  0  0  0
    4.3491   -3.3110   -7.0205 O   0  0  0  0  0  0  0  0  0  0  0  0
    4.0267   -4.6366   -6.7338 C   0  0  0  0  0  0  0  0  0  0  0  0
    3.8996   -5.0555   -5.4640 C   0  0  0  0  0  0  0  0  0  0  0  0
    4.0329   -4.1273   -4.3028 C   0  0  0  0  0  0  0  0  0  0  0  0
    3.6521   -6.4941   -5.1153 C   0  0  3  0  0  0  0  0  0  0  0  0
    2.4113   -6.5916   -4.4439 O   0  0  0  0  0  0  0  0  0  0  0  0
    2.0612   -7.8464   -4.0377 C   0  0  0  0  0  0  0  0  0  0  0  0
    1.1907   -8.0353   -3.2068 O   0  0  0  0  0  0  0  0  0  0  0  0
    2.7992   -8.8488   -4.5787 O   0  0  0  0  0  0  0  0  0  0  0  0
    3.2569   -8.7431   -5.9212 C   0  0  3  0  0  0  0  0  0  0  0  0
    3.5239   -7.3369   -6.3203 C   0  0  0  0  0  0  0  0  0  0  0  0
    3.6169   -6.8525   -7.5775 C   0  0  0  0  0  0  0  0  0  0  0  0
    3.8582   -5.5036   -7.7929 O   0  3  0  0  0  0  0  0  0  0  0  0
    3.4593   -7.6893   -8.7875 C   0  0  0  0  0  0  0  0  0  0  0  0
    2.1764   -7.8528   -9.4025 O   0  0  0  0  0  0  0  0  0  0  0  0
    3.1984   -7.0808  -10.0633 O   0  0  0  0  0  0  0  0  0  0  0  0
    4.5212   -9.3714   -6.0188 O   0  0  0  0  0  0  0  0  0  0  0  0
    4.9161   -0.9936   -6.4673 C   0  0  0  0  0  0  0  0  0  0  0  0
    5.7767   -0.2123   -5.6875 C   0  0  0  0  0  0  0  0  0  0  0  0
    6.1287    1.0220   -6.0568 N   0  3  0  0  0  0  0  0  0  0  0  0
    6.9306    1.7414   -5.2470 F   0  0  0  0  0  0  0  0  0  0  0  0
    5.7375    1.5592   -7.1934 N   0  0  0  0  0  0  0  0  0  0  0  0
    4.9550    0.8648   -8.0224 C   0  0  0  0  0  0  0  0  0  0  0  0
    4.4908   -0.4276   -7.7038 C   0  0  0  0  0  0  0  0  0  0  0  0
    3.6356   -1.0521   -8.6485 C   0  0  0  0  0  0  0  0  0  0  0  0
    3.3312   -0.4700   -9.8885 C   0  0  0  0  0  0  0  0  0  0  0  0
    2.5034   -1.2091  -10.8423 C   0  0  0  0  0  0  0  0  0  0  0  0
    2.0750   -2.3141  -10.5373 O   0  0  0  0  0  0  0  0  0  0  0  0
    2.2660   -0.5797  -12.1951 C   0  0  0  0  0  0  0  0  0  0  0  0
    1.5065   -1.1133  -12.9892 O   0  0  0  0  0  0  0  0  0  0  0  0
    3.1152    0.6444  -12.4885 C   0  0  1  0  0  0  0  0  0  0  0  0
    3.5481    1.4289  -11.3701 O   0  0  0  0  0  0  0  0  0  0  0  0
    3.8130    0.7785  -10.2038 C   0  0  0  0  0  0  0  0  0  0  0  0
    4.5925    1.4369   -9.2482 C   0  0  0  0  0  0  0  0  0  0  0  0
    5.0382    2.6723   -9.5273 F   0  0  0  0  0  0  0  0  0  0  0  0
    4.3027    0.2568  -13.3104 C   0  0  1  0  0  0  0  0  0  0  0  0
    5.2108   -0.7118  -12.7176 O   0  0  0  0  0  0  0  0  0  0  0  0
    4.0543    0.1018  -14.7013 O   0  0  0  0  0  0  0  0  0  0  0  0
    4.8793    1.1085  -14.3547 C   0  0  0  0  0  0  0  0  0  0  0  0
    6.0507    1.2786  -14.6270 O   0  0  0  0  0  0  0  0  0  0  0  0
    4.5765   -0.8505   -1.5131 C   0  0  0  0  0  0  0  0  0  0  0  0
    5.3471    0.0244   -1.8817 O   0  0  0  0  0  0  0  0  0  0  0  0
    4.0798   -0.9709   -0.0924 C   0  0  0  0  0  0  0  0  0  0  0  0
    3.8580    0.0449    0.5439 O   0  0  0  0  0  0  0  0  0  0  0  0
    3.7796   -2.3413    0.4899 C   0  0  0  0  0  0  0  0  0  0  0  0
    3.6435   -2.5052    1.6887 O   0  0  0  0  0  0  0  0  0  0  0  0
  1  2  3  0  0  0  0
  2  3  1  0  0  0  0
  3  4  1  0  0  0  0
  3 53  1  0  0  0  0
  4  5  1  0  0  0  0
  5  6  1  6  0  0  0
  5 49  1  0  0  0  0
  6  7  1  0  0  0  0
  7  8  2  0  0  0  0
  7 12  1  0  0  0  0
  8  9  1  0  0  0  0
  8 26  1  0  0  0  0
  9 10  1  0  0  0  0
 10 11  2  0  0  0  0
 10 21  1  0  0  0  0
 11 12  1  0  0  0  0
 11 13  1  0  0  0  0
 13 14  1  0  0  0  0
 13 19  1  0  0  0  0
 14 15  1  0  0  0  0
 15 16  2  0  0  0  0
 15 17  1  0  0  0  0
 17 18  1  0  0  0  0
 18 19  1  0  0  0  0
 18 25  1  0  0  0  0
 19 20  2  0  0  0  0
 20 21  1  0  0  0  0
 20 22  1  0  0  0  0
 22 23  1  0  0  0  0
 22 24  1  0  0  0  0
 23 24  1  0  0  0  0
 26 27  2  0  0  0  0
 26 32  1  0  0  0  0
 27 28  1  0  0  0  0
 28 29  1  0  0  0  0
 28 30  2  0  0  0  0
 30 31  1  0  0  0  0
 31 32  2  0  0  0  0
 31 42  1  0  0  0  0
 32 33  1  0  0  0  0
 33 34  2  0  0  0  0
 34 35  1  0  0  0  0
 34 41  1  0  0  0  0
 35 36  2  0  0  0  0
 35 37  1  0  0  0  0
 37 38  2  0  0  0  0
 39 37  1  1  0  0  0
 39 40  1  0  0  0  0
 39 44  1  0  0  0  0
 40 41  1  0  0  0  0
 41 42  2  0  0  0  0
 42 43  1  0  0  0  0
 44 45  1  1  0  0  0
 44 46  1  0  0  0  0
 44 47  1  0  0  0  0
 46 47  1  0  0  0  0
 47 48  2  0  0  0  0
 49 50  2  0  0  0  0
 49 51  1  0  0  0  0
 51 52  2  0  0  0  0
 51 53  1  0  0  0  0
 53 54  2  0  0  0  0
M  CHG  2  21   1  28   1
M  END
$$$$