
 OpenBabel11252022453D

 54 62  0  0  1  0  0  0  0  0999 V2000
   -0.7873   -1.2028   -4.7908 O   0  0  0  0  0  0  0  0  0  0  0  0
   -0.3109   -0.3528   -3.8184 C   0  0  0  0  0  0  0  0  0  0  0  0
    0.3992   -0.7994   -2.7769 C   0  0  0  0  0  0  0  0  0  0  0  0
    0.6435   -2.1608   -2.6457 O   0  0  0  0  0  0  0  0  0  0  0  0
    1.9763   -2.4247   -2.2224 C   0  0  2  0  0  0  0  0  0  0  0  0
    2.2438   -3.8525   -2.3202 O   0  0  0  0  0  0  0  0  0  0  0  0
    2.2015   -4.4305   -3.5856 C   0  0  0  0  0  0  0  0  0  0  0  0
    2.0353   -5.7629   -3.7257 C   0  0  0  0  0  0  0  0  0  0  0  0
    1.9929   -6.3960   -4.9830 O   0  0  0  0  0  0  0  0  0  0  0  0
    2.2161   -5.6388   -6.1573 C   0  0  0  0  0  0  0  0  0  0  0  0
    2.4343   -4.3101   -6.0852 C   0  0  0  0  0  0  0  0  0  0  0  0
    2.3905   -3.5519   -4.7960 C   0  0  0  0  0  0  0  0  0  0  0  0
    2.7291   -3.4625   -7.3049 C   0  0  3  0  0  0  0  0  0  0  0  0
    3.9953   -2.8580   -7.1070 O   0  0  0  0  0  0  0  0  0  0  0  0
    4.5161   -2.1930   -8.1633 C   0  0  0  0  0  0  0  0  0  0  0  0
    5.4709   -1.3684   -7.9737 N   0  0  0  0  0  0  0  0  0  0  0  0
    4.0224   -2.4223   -9.3973 O   0  0  0  0  0  0  0  0  0  0  0  0
    3.2617   -3.4979   -9.6629 C   0  0  0  0  0  0  0  0  0  0  0  0
    2.8853   -3.8094  -10.7821 O   0  0  0  0  0  0  0  0  0  0  0  0
    2.8296   -4.2885   -8.5115 C   0  0  0  0  0  0  0  0  0  0  0  0
    2.5756   -5.6127   -8.5493 C   0  0  0  0  0  0  0  0  0  0  0  0
    2.2163   -6.2864   -7.3842 O   0  3  0  0  0  0  0  0  0  0  0  0
    2.7435   -6.4748   -9.7445 C   0  0  0  0  0  0  0  0  0  0  0  0
    3.9905   -7.1408   -9.9788 O   0  0  0  0  0  0  0  0  0  0  0  0
    2.8382   -7.9031   -9.5750 O   0  0  0  0  0  0  0  0  0  0  0  0
    1.9102   -6.6578   -2.5340 C   0  0  0  0  0  0  0  0  0  0  0  0
    3.0713   -7.2168   -1.9878 C   0  0  0  0  0  0  0  0  0  0  0  0
    2.9886   -8.0232   -0.9265 N   0  3  0  0  0  0  0  0  0  0  0  0
    4.1135   -8.5733   -0.4239 F   0  0  0  0  0  0  0  0  0  0  0  0
    1.8372   -8.3262   -0.3657 N   0  0  0  0  0  0  0  0  0  0  0  0
    0.7030   -7.7651   -0.8326 C   0  0  0  0  0  0  0  0  0  0  0  0
    0.7036   -6.9086   -1.9292 N   0  3  0  0  0  0  0  0  0  0  0  0
   -0.4616   -6.3363   -2.3377 C   0  0  0  0  0  0  0  0  0  0  0  0
   -1.6542   -6.5513   -1.6655 C   0  0  0  0  0  0  0  0  0  0  0  0
   -2.8540   -5.8622   -2.0976 C   0  0  0  0  0  0  0  0  0  0  0  0
   -2.8395   -5.3310   -3.1950 O   0  0  0  0  0  0  0  0  0  0  0  0
   -4.0132   -5.7974   -1.1288 C   0  0  0  0  0  0  0  0  0  0  0  0
   -4.9952   -5.1381   -1.4266 O   0  0  0  0  0  0  0  0  0  0  0  0
   -3.7711   -6.4750    0.2093 C   0  0  1  0  0  0  0  0  0  0  0  0
   -2.8430   -7.5871    0.1398 O   0  0  0  0  0  0  0  0  0  0  0  0
   -1.6991   -7.3893   -0.5843 C   0  0  0  0  0  0  0  0  0  0  0  0
   -0.5311   -8.0618   -0.1934 C   0  0  0  0  0  0  0  0  0  0  0  0
   -0.5728   -8.8229    0.9917 N   0  0  0  0  0  0  0  0  0  0  0  0
   -3.4039   -5.4831    1.2982 C   0  0  1  0  0  0  0  0  0  0  0  0
   -4.3828   -4.4714    1.5926 O   0  0  0  0  0  0  0  0  0  0  0  0
   -2.7837   -6.0882    2.4516 O   0  0  0  0  0  0  0  0  0  0  0  0
   -2.0471   -5.2239    1.7601 C   0  0  0  0  0  0  0  0  0  0  0  0
   -0.9859   -5.3327    1.1590 O   0  0  0  0  0  0  0  0  0  0  0  0
    2.1044   -1.9644   -0.7829 C   0  0  0  0  0  0  0  0  0  0  0  0
    2.5389   -2.6672    0.1175 O   0  0  0  0  0  0  0  0  0  0  0  0
    1.6016   -0.5432   -0.5804 C   0  0  0  0  0  0  0  0  0  0  0  0
    1.7023   -0.0063    0.5066 O   0  0  0  0  0  0  0  0  0  0  0  0
    0.9366    0.1587   -1.7609 C   0  0  0  0  0  0  0  0  0  0  0  0
    0.9276    1.3670   -1.8900 O   0  0  0  0  0  0  0  0  0  0  0  0
  1  2  1  0  0  0  0
  2  3  2  0  0  0  0
  3  4  1  0  0  0  0
  3 53  1  0  0  0  0
  4  5  1  0  0  0  0
  5  6  1  1  0  0  0
  5 49  1  0  0  0  0
  6  7  1  0  0  0  0
  7  8  2  0  0  0  0
  7 12  1  0  0  0  0
  8  9  1  0  0  0  0
  8 26  1  0  0  0  0
  9 10  1  0  0  0  0
 10 11  2  0  0  0  0
 10 22  1  0  0  0  0
 11 12  1  0  0  0  0
 11 13  1  0  0  0  0
 13 14  1  0  0  0  0
 13 20  1  0  0  0  0
 14 15  1  0  0  0  0
 15 16  2  0  0  0  0
 15 17  1  0  0  0  0
 17 18  1  0  0  0  0
 18 19  2  0  0  0  0
 18 20  1  0  0  0  0
 20 21  2  0  0  0  0
 21 22  1  0  0  0  0
 21 23  1  0  0  0  0
 23 24  1  0  0  0  0
 23 25  1  0  0  0  0
 24 25  1  0  0  0  0
 26 27  2  0  0  0  0
 26 32  1  0  0  0  0
 27 28  1  0  0  0  0
 28 29  1  0  0  0  0
 28 30  2  0  0  0  0
 30 31  1  0  0  0  0
 31 32  2  0  0  0  0
 31 42  1  0  0  0  0
 32 33  1  0  0  0  0
 33 34  2  0  0  0  0
 34 35  1  0  0  0  0
 34 41  1  0  0  0  0
 35 36  2  0  0  0  0
 35 37  1  0  0  0  0
 37 38  2  0  0  0  0
 39 37  1  6  0  0  0
 39 40  1  0  0  0  0
 39 44  1  0  0  0  0
 40 41  1  0  0  0  0
 41 42  2  0  0  0  0
 42 43  1  0  0  0  0
 44 45  1  1  0  0  0
 44 46  1  0  0  0  0
 44 47  1  0  0  0  0
 46 47  1  0  0  0  0
 47 48  2  0  0  0  0
 49 50  2  0  0  0  0
 49 51  1  0  0  0  0
 51 52  2  0  0  0  0
 51 53  1  0  0  0  0
 53 54  2  0  0  0  0
M  CHG  3  22   1  28   1  32   1
M  END
$$$$