
 OpenBabel09222006313D

 52 60  0  0  1  0  0  0  0  0999 V2000
    5.8627   -5.6701    0.7791 O   0  0  0  0  0  0  0  0  0  0  0  0
    5.4985   -4.8646    1.9057 C   0  0  0  0  0  0  0  0  0  0  0  0
    3.9714   -4.8178    2.0281 C   0  0  2  0  0  0  0  0  0  0  0  0
    3.4180   -4.1758    0.8682 O   0  0  0  0  0  0  0  0  0  0  0  0
    1.9923   -4.0845    0.8695 C   0  0  2  0  0  0  0  0  0  0  0  0
    1.5057   -3.6412   -0.4132 O   0  0  0  0  0  0  0  0  0  0  0  0
    1.7331   -4.4781   -1.5069 C   0  0  0  0  0  0  0  0  0  0  0  0
    1.8302   -4.0340   -2.7851 C   0  0  0  0  0  0  0  0  0  0  0  0
    1.9093   -4.9173   -3.8804 O   0  0  0  0  0  0  0  0  0  0  0  0
    1.8229   -6.2866   -3.7041 C   0  0  0  0  0  0  0  0  0  0  0  0
    1.8160   -6.8328   -2.4237 C   0  0  0  0  0  0  0  0  0  0  0  0
    1.7504   -5.9463   -1.2259 C   0  0  0  0  0  0  0  0  0  0  0  0
    1.8071   -8.2183   -2.2676 C   0  0  0  0  0  0  0  0  0  0  0  0
    1.8588   -8.7922   -0.9957 N   0  0  0  0  0  0  0  0  0  0  0  0
    1.7030  -10.1159   -0.7363 C   0  0  0  0  0  0  0  0  0  0  0  0
    1.7105  -10.5348    0.4134 O   0  0  0  0  0  0  0  0  0  0  0  0
    1.4980  -10.9222   -1.8039 N   0  0  0  0  0  0  0  0  0  0  0  0
    1.7766  -10.5387   -3.1646 C   0  0  0  0  0  0  0  0  0  0  0  0
    1.7417   -9.0518   -3.3704 C   0  0  0  0  0  0  0  0  0  0  0  0
    1.7027   -8.4662   -4.6326 C   0  0  0  0  0  0  0  0  0  0  0  0
    1.7621   -7.1142   -4.7841 N   0  3  0  0  0  0  0  0  0  0  0  0
    1.6886   -6.5228   -6.1498 C   0  0  0  0  0  0  0  0  0  0  0  0
    1.8844   -7.5966   -7.2037 C   0  0  0  0  0  0  0  0  0  0  0  0
    1.0266   -8.6686   -6.8271 O   0  0  0  0  0  0  0  0  0  0  0  0
    1.6999   -9.3358   -5.7180 O   0  0  0  0  0  0  0  0  0  0  0  0
    1.7185   -2.6101   -3.2459 C   0  0  0  0  0  0  0  0  0  0  0  0
    1.0526   -2.5159   -4.4344 N   0  0  0  0  0  0  0  0  0  0  0  0
    0.7691   -1.2838   -4.9074 C   0  0  0  0  0  0  0  0  0  0  0  0
    1.0712   -0.1148   -4.2381 C   0  0  0  0  0  0  0  0  0  0  0  0
    1.7720   -0.1920   -3.0349 C   0  0  0  0  0  0  0  0  0  0  0  0
    2.1938   -1.4578   -2.5596 C   0  0  0  0  0  0  0  0  0  0  0  0
    3.0669   -1.4521   -1.4514 C   0  0  0  0  0  0  0  0  0  0  0  0
    3.3361   -0.2753   -0.7406 C   0  0  0  0  0  0  0  0  0  0  0  0
    2.7802    0.9333   -1.1112 C   0  0  0  0  0  0  0  0  0  0  0  0
    2.0487    0.9801   -2.2970 C   0  0  0  0  0  0  0  0  0  0  0  0
    2.9113    2.1015   -0.4263 O   0  0  0  0  0  0  0  0  0  0  0  0
    3.5215    2.0861    0.8699 C   0  0  2  0  0  0  0  0  0  0  0  0
    4.0239    0.7690    1.4304 C   0  0  0  0  0  0  0  0  0  0  0  0
    4.2675    0.5474    2.6092 O   0  0  0  0  0  0  0  0  0  0  0  0
    4.1986   -0.3300    0.4301 C   0  0  0  0  0  0  0  0  0  0  0  0
    4.9705   -1.2538    0.6340 O   0  0  0  0  0  0  0  0  0  0  0  0
    2.6192    2.7952    1.8470 C   0  0  1  0  0  0  0  0  0  0  0  0
    2.3525    4.1929    1.5534 O   0  0  0  0  0  0  0  0  0  0  0  0
    1.5011    2.0320    2.3080 O   0  0  0  0  0  0  0  0  0  0  0  0
    2.4016    2.4031    3.2416 C   0  0  0  0  0  0  0  0  0  0  0  0
    2.2789    3.0860    4.2252 O   0  0  0  0  0  0  0  0  0  0  0  0
    1.5710   -3.1681    2.0107 C   0  0  0  0  0  0  0  0  0  0  0  0
    0.8455   -2.1909    1.9464 O   0  0  0  0  0  0  0  0  0  0  0  0
    2.1468   -3.6508    3.3160 C   0  0  0  0  0  0  0  0  0  0  0  0
    1.4230   -3.8129    4.2839 O   0  0  0  0  0  0  0  0  0  0  0  0
    3.5760   -4.1352    3.3275 C   0  0  0  0  0  0  0  0  0  0  0  0
    4.2661   -4.0470    4.3288 O   0  0  0  0  0  0  0  0  0  0  0  0
  1  2  1  0  0  0  0
  3  4  1  0  0  0  0
  3 51  1  0  0  0  0
  3  2  1  6  0  0  0
  4  5  1  0  0  0  0
  5  6  1  6  0  0  0
  5 47  1  0  0  0  0
  6  7  1  0  0  0  0
  7  8  2  0  0  0  0
  7 12  1  0  0  0  0
  8  9  1  0  0  0  0
  8 26  1  0  0  0  0
  9 10  1  0  0  0  0
 10 11  2  0  0  0  0
 10 21  1  0  0  0  0
 11 12  1  0  0  0  0
 11 13  1  0  0  0  0
 13 14  1  0  0  0  0
 13 19  2  0  0  0  0
 14 15  1  0  0  0  0
 15 16  2  0  0  0  0
 15 17  1  0  0  0  0
 17 18  1  0  0  0  0
 18 19  1  0  0  0  0
 19 20  1  0  0  0  0
 20 21  2  0  0  0  0
 20 25  1  0  0  0  0
 21 22  1  0  0  0  0
 22 23  1  0  0  0  0
 23 24  1  0  0  0  0
 24 25  1  0  0  0  0
 26 27  2  0  0  0  0
 26 31  1  0  0  0  0
 27 28  1  0  0  0  0
 28 29  2  0  0  0  0
 29 30  1  0  0  0  0
 30 31  2  0  0  0  0
 30 35  1  0  0  0  0
 31 32  1  0  0  0  0
 32 33  2  0  0  0  0
 33 34  1  0  0  0  0
 33 40  1  0  0  0  0
 34 35  2  0  0  0  0
 34 36  1  0  0  0  0
 37 36  1  6  0  0  0
 37 38  1  0  0  0  0
 37 42  1  0  0  0  0
 38 39  2  0  0  0  0
 38 40  1  0  0  0  0
 40 41  2  0  0  0  0
 42 43  1  6  0  0  0
 42 44  1  0  0  0  0
 42 45  1  0  0  0  0
 44 45  1  0  0  0  0
 45 46  2  0  0  0  0
 47 48  2  0  0  0  0
 47 49  1  0  0  0  0
 49 50  2  0  0  0  0
 49 51  1  0  0  0  0
 51 52  2  0  0  0  0
M  CHG  1  21   1
M  END
$$$$