
 OpenBabel11222001513D

 54 62  0  0  1  0  0  0  0  0999 V2000
   -2.2295    4.5950   -2.1590 O   0  0  0  0  0  0  0  0  0  0  0  0
   -1.6695    3.9430   -1.0908 C   0  0  0  0  0  0  0  0  0  0  0  0
   -0.3682    3.6340   -1.0205 C   0  0  0  0  0  0  0  0  0  0  0  0
    0.5216    3.9605   -2.0404 O   0  0  0  0  0  0  0  0  0  0  0  0
    1.8532    4.1705   -1.5741 C   0  0  2  0  0  0  0  0  0  0  0  0
    2.7443    4.5973   -2.6350 O   0  0  0  0  0  0  0  0  0  0  0  0
    2.8004    5.9498   -2.9447 C   0  0  0  0  0  0  0  0  0  0  0  0
    3.8898    6.4900   -3.5400 C   0  0  0  0  0  0  0  0  0  0  0  0
    3.9671    7.8565   -3.8733 O   0  0  0  0  0  0  0  0  0  0  0  0
    2.9702    8.7397   -3.4278 C   0  0  0  0  0  0  0  0  0  0  0  0
    1.8663    8.2760   -2.8157 C   0  0  0  0  0  0  0  0  0  0  0  0
    1.5989    6.8101   -2.6365 C   0  0  0  0  0  0  0  0  0  0  0  0
    0.8384    9.1969   -2.2156 C   0  0  3  0  0  0  0  0  0  0  0  0
    0.8735    8.9728   -0.8235 O   0  0  0  0  0  0  0  0  0  0  0  0
    0.0026    9.7034   -0.0442 C   0  0  0  0  0  0  0  0  0  0  0  0
   -0.2467    9.4078    1.0961 O   0  0  0  0  0  0  0  0  0  0  0  0
   -0.5492   10.7531   -0.6825 O   0  0  0  0  0  0  0  0  0  0  0  0
    0.1680   11.4658   -1.6984 C   0  0  3  0  0  0  0  0  0  0  0  0
    1.1867   10.6199   -2.3897 C   0  0  0  0  0  0  0  0  0  0  0  0
    2.2877   11.0341   -3.0604 C   0  0  0  0  0  0  0  0  0  0  0  0
    3.1632   10.0969   -3.6065 O   0  3  0  0  0  0  0  0  0  0  0  0
    2.6560   12.4591   -3.2754 C   0  0  0  0  0  0  0  0  0  0  0  0
    4.0398   12.8363   -3.3891 O   0  0  0  0  0  0  0  0  0  0  0  0
    3.1807   12.8891   -4.5427 O   0  0  0  0  0  0  0  0  0  0  0  0
   -0.7277   11.8559   -2.7109 O   0  0  0  0  0  0  0  0  0  0  0  0
    5.1102    5.7063   -3.8971 C   0  0  0  0  0  0  0  0  0  0  0  0
    5.1222    5.2113   -5.1565 N   0  0  0  0  0  0  0  0  0  0  0  0
    6.2016    4.5470   -5.5722 N   0  3  0  0  0  0  0  0  0  0  0  0
    6.1896    4.0073   -6.8072 F   0  0  0  0  0  0  0  0  0  0  0  0
    7.3056    4.4176   -4.8262 C   0  0  0  0  0  0  0  0  0  0  0  0
    7.3487    4.9250   -3.5330 C   0  0  0  0  0  0  0  0  0  0  0  0
    6.2059    5.5563   -3.0176 C   0  0  0  0  0  0  0  0  0  0  0  0
    6.2497    5.9739   -1.6644 C   0  0  0  0  0  0  0  0  0  0  0  0
    7.3971    5.7797   -0.8700 C   0  0  0  0  0  0  0  0  0  0  0  0
    7.3883    6.0549    0.5732 C   0  0  0  0  0  0  0  0  0  0  0  0
    6.3586    6.3948    1.2817 N   0  0  0  0  0  0  0  0  0  0  0  0
    8.6896    5.8938    1.3074 C   0  0  0  0  0  0  0  0  0  0  0  0
    8.7010    5.8954    2.6043 N   0  0  0  0  0  0  0  0  0  0  0  0
    9.9292    5.8370    0.4535 C   0  0  1  0  0  0  0  0  0  0  0  0
    9.7361    5.0879   -0.7602 O   0  0  0  0  0  0  0  0  0  0  0  0
    8.5572    5.2538   -1.4272 C   0  0  0  0  0  0  0  0  0  0  0  0
    8.5100    4.8086   -2.7487 C   0  0  0  0  0  0  0  0  0  0  0  0
    9.5976    4.2481   -3.3007 F   0  0  0  0  0  0  0  0  0  0  0  0
   10.4960    7.2088    0.1571 C   0  0  1  0  0  0  0  0  0  0  0  0
   11.6784    7.2413   -0.6640 O   0  0  0  0  0  0  0  0  0  0  0  0
    9.5367    8.2298   -0.1357 O   0  0  0  0  0  0  0  0  0  0  0  0
   10.2898    8.3981    1.0792 C   0  0  3  0  0  0  0  0  0  0  0  0
   11.3079    9.4119    1.0213 O   0  0  0  0  0  0  0  0  0  0  0  0
    2.4277    2.9140   -0.9485 C   0  0  0  0  0  0  0  0  0  0  0  0
    3.5787    2.5290   -1.0975 O   0  0  0  0  0  0  0  0  0  0  0  0
    1.4555    2.2618    0.0108 C   0  0  0  0  0  0  0  0  0  0  0  0
    1.7571    1.2484    0.6145 O   0  0  0  0  0  0  0  0  0  0  0  0
    0.1023    2.9182    0.1997 C   0  0  0  0  0  0  0  0  0  0  0  0
   -0.4693    2.9389    1.2754 O   0  0  0  0  0  0  0  0  0  0  0  0
  1  2  1  0  0  0  0
  2  3  2  0  0  0  0
  3  4  1  0  0  0  0
  3 53  1  0  0  0  0
  4  5  1  0  0  0  0
  5  6  1  6  0  0  0
  5 49  1  0  0  0  0
  6  7  1  0  0  0  0
  7  8  2  0  0  0  0
  7 12  1  0  0  0  0
  8  9  1  0  0  0  0
  8 26  1  0  0  0  0
  9 10  1  0  0  0  0
 10 11  2  0  0  0  0
 10 21  1  0  0  0  0
 11 12  1  0  0  0  0
 11 13  1  0  0  0  0
 13 14  1  0  0  0  0
 13 19  1  0  0  0  0
 14 15  1  0  0  0  0
 15 16  2  0  0  0  0
 15 17  1  0  0  0  0
 17 18  1  0  0  0  0
 18 19  1  0  0  0  0
 18 25  1  0  0  0  0
 19 20  2  0  0  0  0
 20 21  1  0  0  0  0
 20 22  1  0  0  0  0
 22 23  1  0  0  0  0
 22 24  1  0  0  0  0
 23 24  1  0  0  0  0
 26 27  2  0  0  0  0
 26 32  1  0  0  0  0
 27 28  1  0  0  0  0
 28 29  1  0  0  0  0
 28 30  2  0  0  0  0
 30 31  1  0  0  0  0
 31 32  2  0  0  0  0
 31 42  1  0  0  0  0
 32 33  1  0  0  0  0
 33 34  2  0  0  0  0
 34 35  1  0  0  0  0
 34 41  1  0  0  0  0
 35 36  2  0  0  0  0
 35 37  1  0  0  0  0
 37 38  2  0  0  0  0
 39 37  1  6  0  0  0
 39 40  1  0  0  0  0
 39 44  1  0  0  0  0
 40 41  1  0  0  0  0
 41 42  2  0  0  0  0
 42 43  1  0  0  0  0
 44 45  1  6  0  0  0
 44 46  1  0  0  0  0
 44 47  1  0  0  0  0
 46 47  1  0  0  0  0
 47 48  1  0  0  0  0
 49 50  2  0  0  0  0
 49 51  1  0  0  0  0
 51 52  2  0  0  0  0
 51 53  1  0  0  0  0
 53 54  2  0  0  0  0
M  CHG  2  21   1  28   1
M  END
$$$$