
 OpenBabel11242001193D

 54 63  0  0  1  0  0  0  0  0999 V2000
   20.6675   10.9410   -9.3710 N   0  0  0  0  0  0  0  0  0  0  0  0
   19.7304   11.0950  -10.4245 N   0  0  0  0  0  0  0  0  0  0  0  0
   18.5480   10.3308  -10.3970 C   0  0  0  0  0  0  0  0  0  0  0  0
   17.4634   10.8521  -10.9921 N   0  0  0  0  0  0  0  0  0  0  0  0
   16.3279   10.1213  -10.9682 C   0  0  0  0  0  0  0  0  0  0  0  0
   16.2337    8.8874  -10.3686 C   0  0  0  0  0  0  0  0  0  0  0  0
   17.4005    8.4466   -9.7779 C   0  0  0  0  0  0  0  0  0  0  0  0
   18.5473    9.1419   -9.7796 N   0  0  0  0  0  0  0  0  0  0  0  0
   17.4471    7.1452   -9.1095 C   0  0  0  0  0  0  0  0  0  0  0  0
   16.3023    6.4705   -8.9404 C   0  0  0  0  0  0  0  0  0  0  0  0
   15.0957    6.9781   -9.3568 N   0  0  0  0  0  0  0  0  0  0  0  0
   15.0006    8.0290  -10.3812 C   0  0  3  0  0  0  0  0  0  0  0  0
   14.8311    7.3813  -11.7269 C   0  0  0  0  0  0  0  0  0  0  0  0
   13.6345    6.6067  -11.8688 O   0  0  0  0  0  0  0  0  0  0  0  0
   13.7659    7.8875  -12.5284 O   0  0  0  0  0  0  0  0  0  0  0  0
   16.2787    5.2296   -8.3317 O   0  0  0  0  0  0  0  0  0  0  0  0
   17.4523    4.7029   -7.8047 C   0  0  0  0  0  0  0  0  0  0  0  0
   18.6488    5.3243   -7.8836 C   0  0  0  0  0  0  0  0  0  0  0  0
   18.7651    6.6344   -8.6308 C   0  0  0  0  0  0  0  0  0  0  0  0
   19.7692    4.7717   -7.2840 O   0  0  0  0  0  0  0  0  0  0  0  0
   21.0402    5.4506   -7.3985 C   0  0  1  0  0  0  0  0  0  0  0  0
   21.1590    6.4373   -6.3766 O   0  0  0  0  0  0  0  0  0  0  0  0
   22.3943    7.0652   -6.3288 C   0  0  0  0  0  0  0  0  0  0  0  0
   22.4864    8.3631   -6.0111 C   0  0  0  0  0  0  0  0  0  0  0  0
   21.4185    9.1806   -5.7451 O   0  0  0  0  0  0  0  0  0  0  0  0
   23.6689    6.3268   -6.5800 C   0  0  0  0  0  0  0  0  0  0  0  0
   24.7769    6.7774   -6.3483 O   0  0  0  0  0  0  0  0  0  0  0  0
   23.4873    4.9406   -7.1594 C   0  0  0  0  0  0  0  0  0  0  0  0
   24.4409    4.2974   -7.5662 O   0  0  0  0  0  0  0  0  0  0  0  0
   22.1009    4.3729   -7.2845 C   0  0  0  0  0  0  0  0  0  0  0  0
   21.8985    3.1664   -7.3100 O   0  0  0  0  0  0  0  0  0  0  0  0
   17.2110    3.4239   -7.1185 C   0  0  0  0  0  0  0  0  0  0  0  0
   17.1586    3.4287   -5.7318 C   0  0  0  0  0  0  0  0  0  0  0  0
   16.7661    2.3385   -5.0675 N   0  3  0  0  0  0  0  0  0  0  0  0
   16.6999    2.3810   -3.7233 F   0  0  0  0  0  0  0  0  0  0  0  0
   16.3904    1.2277   -5.6786 N   0  0  0  0  0  0  0  0  0  0  0  0
   16.4341    1.1567   -7.0151 C   0  0  0  0  0  0  0  0  0  0  0  0
   16.8735    2.2364   -7.8002 C   0  0  0  0  0  0  0  0  0  0  0  0
   16.9380    2.0760   -9.2086 C   0  0  0  0  0  0  0  0  0  0  0  0
   16.5269    0.8840   -9.8209 C   0  0  0  0  0  0  0  0  0  0  0  0
   16.0272   -0.1493   -9.0519 C   0  0  0  0  0  0  0  0  0  0  0  0
   16.0096   -0.0074   -7.6632 C   0  0  0  0  0  0  0  0  0  0  0  0
   15.5441   -1.0226   -6.9178 F   0  0  0  0  0  0  0  0  0  0  0  0
   15.5895   -1.3269   -9.5970 O   0  0  0  0  0  0  0  0  0  0  0  0
   15.0750   -1.2068  -10.9488 C   0  0  1  0  0  0  0  0  0  0  0  0
   15.9022   -0.4562  -11.9133 C   0  0  0  0  0  0  0  0  0  0  0  0
   15.8911   -0.6422  -13.1165 O   0  0  0  0  0  0  0  0  0  0  0  0
   16.6336    0.7107  -11.2765 C   0  0  0  0  0  0  0  0  0  0  0  0
   17.2677    1.5113  -11.9433 O   0  0  0  0  0  0  0  0  0  0  0  0
   14.4124   -2.3394  -11.4471 O   0  0  0  0  0  0  0  0  0  0  0  0
   13.5925   -1.1605  -11.1777 C   0  0  1  0  0  0  0  0  0  0  0  0
   12.9661   -1.0290   -9.8641 O   0  0  0  0  0  0  0  0  0  0  0  0
   12.2901   -1.6555  -10.7994 C   0  0  0  0  0  0  0  0  0  0  0  0
   11.1780   -1.4669  -11.2303 O   0  0  0  0  0  0  0  0  0  0  0  0
  1  2  1  0  0  0  0
  2  3  1  0  0  0  0
  3  4  2  0  0  0  0
  3  8  1  0  0  0  0
  4  5  1  0  0  0  0
  5  6  2  0  0  0  0
  6  7  1  0  0  0  0
  6 12  1  0  0  0  0
  7  8  2  0  0  0  0
  7  9  1  0  0  0  0
  9 10  2  0  0  0  0
  9 19  1  0  0  0  0
 10 11  1  0  0  0  0
 10 16  1  0  0  0  0
 11 12  1  0  0  0  0
 12 13  1  0  0  0  0
 13 14  1  0  0  0  0
 13 15  1  0  0  0  0
 14 15  1  0  0  0  0
 16 17  1  0  0  0  0
 17 18  2  0  0  0  0
 17 32  1  0  0  0  0
 18 19  1  0  0  0  0
 18 20  1  0  0  0  0
 21 20  1  1  0  0  0
 21 22  1  0  0  0  0
 21 30  1  0  0  0  0
 22 23  1  0  0  0  0
 23 24  2  0  0  0  0
 23 26  1  0  0  0  0
 24 25  1  0  0  0  0
 26 27  2  0  0  0  0
 26 28  1  0  0  0  0
 28 29  2  0  0  0  0
 28 30  1  0  0  0  0
 30 31  2  0  0  0  0
 32 33  2  0  0  0  0
 32 38  1  0  0  0  0
 33 34  1  0  0  0  0
 34 35  1  0  0  0  0
 34 36  2  0  0  0  0
 36 37  1  0  0  0  0
 37 38  2  0  0  0  0
 37 42  1  0  0  0  0
 38 39  1  0  0  0  0
 39 40  2  0  0  0  0
 40 41  1  0  0  0  0
 40 48  1  0  0  0  0
 41 42  2  0  0  0  0
 41 44  1  0  0  0  0
 42 43  1  0  0  0  0
 45 44  1  1  0  0  0
 45 46  1  0  0  0  0
 45 50  1  0  0  0  0
 45 51  1  0  0  0  0
 46 47  2  0  0  0  0
 46 48  1  0  0  0  0
 48 49  2  0  0  0  0
 51 50  1  1  0  0  0
 51 52  1  0  0  0  0
 51 53  1  0  0  0  0
 52 53  1  0  0  0  0
 53 54  2  0  0  0  0
M  CHG  1  34   1
M  END
$$$$