
 OpenBabel11252020413D

 54 62  0  0  1  0  0  0  0  0999 V2000
    7.3931   -2.9019    3.9703 O   0  0  0  0  0  0  0  0  0  0  0  0
    7.1733   -1.5727    3.6983 C   0  0  0  0  0  0  0  0  0  0  0  0
    5.9484   -1.0742    3.4955 C   0  0  0  0  0  0  0  0  0  0  0  0
    4.8486   -1.9217    3.5170 O   0  0  0  0  0  0  0  0  0  0  0  0
    3.6736   -1.3174    4.0181 C   0  0  2  0  0  0  0  0  0  0  0  0
    2.5521   -2.2374    3.8949 O   0  0  0  0  0  0  0  0  0  0  0  0
    2.6093   -3.4692    4.5118 C   0  0  0  0  0  0  0  0  0  0  0  0
    2.0051   -4.5597    3.9721 C   0  0  0  0  0  0  0  0  0  0  0  0
    2.1480   -5.8274    4.6033 O   0  0  0  0  0  0  0  0  0  0  0  0
    2.8550   -5.9634    5.8210 C   0  0  0  0  0  0  0  0  0  0  0  0
    3.3617   -4.8799    6.4332 C   0  0  0  0  0  0  0  0  0  0  0  0
    3.3236   -3.5180    5.8333 C   0  0  0  0  0  0  0  0  0  0  0  0
    4.0438   -4.9460    7.7745 C   0  0  3  0  0  0  0  0  0  0  0  0
    3.2034   -4.2640    8.6836 O   0  0  0  0  0  0  0  0  0  0  0  0
    3.5701   -4.2479    9.9959 C   0  0  0  0  0  0  0  0  0  0  0  0
    3.0634   -3.4578   10.7734 O   0  0  0  0  0  0  0  0  0  0  0  0
    4.4901   -5.1673   10.3700 O   0  0  0  0  0  0  0  0  0  0  0  0
    4.8905   -6.2806    9.5749 C   0  0  3  0  0  0  0  0  0  0  0  0
    4.1717   -6.3299    8.2704 C   0  0  0  0  0  0  0  0  0  0  0  0
    3.7005   -7.3988    7.5900 C   0  0  0  0  0  0  0  0  0  0  0  0
    3.0117   -7.2229    6.3851 O   0  3  0  0  0  0  0  0  0  0  0  0
    3.8643   -8.8170    8.0025 C   0  0  0  0  0  0  0  0  0  0  0  0
    2.8479   -9.7789    7.6730 O   0  0  0  0  0  0  0  0  0  0  0  0
    4.1196   -9.8185    7.0016 O   0  0  0  0  0  0  0  0  0  0  0  0
    6.2531   -6.1372    9.2323 O   0  0  0  0  0  0  0  0  0  0  0  0
    1.2051   -4.4403    2.7539 N   0  3  0  0  0  0  0  0  0  0  0  0
    0.5416   -3.2670    2.4992 C   0  0  0  0  0  0  0  0  0  0  0  0
   -0.1629   -3.0578    1.3857 N   0  3  0  0  0  0  0  0  0  0  0  0
   -0.7559   -1.8631    1.1905 F   0  0  0  0  0  0  0  0  0  0  0  0
   -0.3249   -4.0001    0.4891 N   0  0  0  0  0  0  0  0  0  0  0  0
    0.2303   -5.1970    0.6808 C   0  0  0  0  0  0  0  0  0  0  0  0
    1.0379   -5.4618    1.8273 C   0  0  0  0  0  0  0  0  0  0  0  0
    1.6214   -6.7335    1.9211 C   0  0  0  0  0  0  0  0  0  0  0  0
    1.3654   -7.7367    0.9662 C   0  0  0  0  0  0  0  0  0  0  0  0
    1.8728   -9.0886    1.1912 C   0  0  0  0  0  0  0  0  0  0  0  0
    2.3528   -9.3443    2.2871 O   0  0  0  0  0  0  0  0  0  0  0  0
    1.7657  -10.0910    0.0609 C   0  0  0  0  0  0  0  0  0  0  0  0
    2.2954  -11.1856    0.1698 O   0  0  0  0  0  0  0  0  0  0  0  0
    1.1205   -9.5725   -1.2107 C   0  0  1  0  0  0  0  0  0  0  0  0
    0.2565   -8.4314   -1.0594 O   0  0  0  0  0  0  0  0  0  0  0  0
    0.5851   -7.4818   -0.1368 C   0  0  0  0  0  0  0  0  0  0  0  0
    0.0007   -6.2080   -0.2786 C   0  0  0  0  0  0  0  0  0  0  0  0
   -0.6435   -5.9024   -1.4900 N   0  0  0  0  0  0  0  0  0  0  0  0
    2.1203   -9.3091   -2.2995 C   0  0  1  0  0  0  0  0  0  0  0  0
    1.6062   -8.6267   -3.4700 O   0  0  0  0  0  0  0  0  0  0  0  0
    3.3912   -8.8656   -1.8350 O   0  0  0  0  0  0  0  0  0  0  0  0
    3.3716  -10.0438   -2.5085 C   0  0  0  0  0  0  0  0  0  0  0  0
    3.9238  -10.3327   -3.5462 O   0  0  0  0  0  0  0  0  0  0  0  0
    3.2735   -0.1646    3.1331 C   0  0  0  0  0  0  0  0  0  0  0  0
    2.2037   -0.1125    2.5355 O   0  0  0  0  0  0  0  0  0  0  0  0
    4.3749    0.8570    3.0093 C   0  0  0  0  0  0  0  0  0  0  0  0
    4.0811    2.0188    2.8029 O   0  0  0  0  0  0  0  0  0  0  0  0
    5.8118    0.3921    3.2087 C   0  0  0  0  0  0  0  0  0  0  0  0
    6.7524    1.1613    3.1588 O   0  0  0  0  0  0  0  0  0  0  0  0
  1  2  1  0  0  0  0
  2  3  2  0  0  0  0
  3  4  1  0  0  0  0
  3 53  1  0  0  0  0
  4  5  1  0  0  0  0
  5  6  1  6  0  0  0
  5 49  1  0  0  0  0
  6  7  1  0  0  0  0
  7  8  2  0  0  0  0
  7 12  1  0  0  0  0
  8  9  1  0  0  0  0
  8 26  1  0  0  0  0
  9 10  1  0  0  0  0
 10 11  2  0  0  0  0
 10 21  1  0  0  0  0
 11 12  1  0  0  0  0
 11 13  1  0  0  0  0
 13 14  1  0  0  0  0
 13 19  1  0  0  0  0
 14 15  1  0  0  0  0
 15 16  2  0  0  0  0
 15 17  1  0  0  0  0
 17 18  1  0  0  0  0
 18 19  1  0  0  0  0
 18 25  1  0  0  0  0
 19 20  2  0  0  0  0
 20 21  1  0  0  0  0
 20 22  1  0  0  0  0
 22 23  1  0  0  0  0
 22 24  1  0  0  0  0
 23 24  1  0  0  0  0
 26 27  2  0  0  0  0
 26 32  1  0  0  0  0
 27 28  1  0  0  0  0
 28 29  1  0  0  0  0
 28 30  2  0  0  0  0
 30 31  1  0  0  0  0
 31 32  2  0  0  0  0
 31 42  1  0  0  0  0
 32 33  1  0  0  0  0
 33 34  2  0  0  0  0
 34 35  1  0  0  0  0
 34 41  1  0  0  0  0
 35 36  2  0  0  0  0
 35 37  1  0  0  0  0
 37 38  2  0  0  0  0
 39 37  1  1  0  0  0
 39 40  1  0  0  0  0
 39 44  1  0  0  0  0
 40 41  1  0  0  0  0
 41 42  2  0  0  0  0
 42 43  1  0  0  0  0
 44 45  1  6  0  0  0
 44 46  1  0  0  0  0
 44 47  1  0  0  0  0
 46 47  1  0  0  0  0
 47 48  2  0  0  0  0
 49 50  2  0  0  0  0
 49 51  1  0  0  0  0
 51 52  2  0  0  0  0
 51 53  1  0  0  0  0
 53 54  2  0  0  0  0
M  CHG  3  21   1  26   1  28   1
M  END
$$$$