
 OpenBabel11252002333D

 52 60  0  0  1  0  0  0  0  0999 V2000
    0.0103    7.3754   -3.2935 O   0  0  0  0  0  0  0  0  0  0  0  0
   -0.3643    6.0851   -3.5615 C   0  0  0  0  0  0  0  0  0  0  0  0
    0.1071    5.0353   -2.8776 C   0  0  0  0  0  0  0  0  0  0  0  0
    1.0565    5.2066   -1.8795 O   0  0  0  0  0  0  0  0  0  0  0  0
    1.0052    4.2646   -0.8044 C   0  0  2  0  0  0  0  0  0  0  0  0
    2.0191    4.5398    0.1859 O   0  0  0  0  0  0  0  0  0  0  0  0
    1.9165    5.7781    0.8210 C   0  0  0  0  0  0  0  0  0  0  0  0
    3.0085    6.4436    1.2596 C   0  0  0  0  0  0  0  0  0  0  0  0
    2.9488    7.6930    1.8727 O   0  0  0  0  0  0  0  0  0  0  0  0
    1.7165    8.3273    2.0075 C   0  0  0  0  0  0  0  0  0  0  0  0
    0.5727    7.7167    1.6643 C   0  0  0  0  0  0  0  0  0  0  0  0
    0.5395    6.3492    1.0744 C   0  0  0  0  0  0  0  0  0  0  0  0
   -0.6983    8.4437    1.7675 C   0  0  0  0  0  0  0  0  0  0  0  0
   -1.8016    7.7718    1.3724 N   0  0  0  0  0  0  0  0  0  0  0  0
   -2.9479    8.4631    1.3911 C   0  0  0  0  0  0  0  0  0  0  0  0
   -3.0770    9.7464    1.7468 N   0  0  0  0  0  0  0  0  0  0  0  0
   -1.9520   10.3661    2.1548 C   0  0  0  0  0  0  0  0  0  0  0  0
   -0.7163    9.7534    2.2084 C   0  0  0  0  0  0  0  0  0  0  0  0
    0.5212   10.4194    2.7449 C   0  0  3  0  0  0  0  0  0  0  0  0
    1.7233    9.6030    2.5083 N   0  0  0  0  0  0  0  0  0  0  0  0
    0.3622   10.6564    4.2429 C   0  0  0  0  0  0  0  0  0  0  0  0
    0.2021    9.5439    5.1864 N   0  0  0  0  0  0  0  0  0  0  0  0
    1.4188   10.2773    5.1880 N   0  0  0  0  0  0  0  0  0  0  0  0
    4.3688    5.8827    1.1782 C   0  0  0  0  0  0  0  0  0  0  0  0
    4.8171    5.1176    2.2483 C   0  0  0  0  0  0  0  0  0  0  0  0
    6.0189    4.5361    2.2106 N   0  3  0  0  0  0  0  0  0  0  0  0
    6.4494    3.8468    3.2842 F   0  0  0  0  0  0  0  0  0  0  0  0
    6.8057    4.5980    1.1552 N   0  0  0  0  0  0  0  0  0  0  0  0
    6.4455    5.3370    0.0992 C   0  0  0  0  0  0  0  0  0  0  0  0
    5.2333    6.0572    0.0823 C   0  0  0  0  0  0  0  0  0  0  0  0
    4.9686    6.9280   -0.9996 C   0  0  0  0  0  0  0  0  0  0  0  0
    5.8841    7.0605   -2.0486 C   0  0  0  0  0  0  0  0  0  0  0  0
    5.6833    8.0690   -3.0964 C   0  0  0  0  0  0  0  0  0  0  0  0
    4.7794    8.8850   -3.0254 O   0  0  0  0  0  0  0  0  0  0  0  0
    6.6646    8.0642   -4.2475 C   0  0  0  0  0  0  0  0  0  0  0  0
    6.7426    9.0134   -5.0124 O   0  0  0  0  0  0  0  0  0  0  0  0
    7.4613    6.7916   -4.3728 C   0  0  1  0  0  0  0  0  0  0  0  0
    7.9295    6.2886   -3.1120 O   0  0  0  0  0  0  0  0  0  0  0  0
    7.0220    6.2706   -2.0838 C   0  0  0  0  0  0  0  0  0  0  0  0
    7.2998    5.3927   -1.0185 C   0  0  0  0  0  0  0  0  0  0  0  0
    8.5570    4.7385   -0.9963 N   0  0  0  0  0  0  0  0  0  0  0  0
    6.7115    5.7258   -5.1223 C   0  0  1  0  0  0  0  0  0  0  0  0
    5.4554    5.2776   -4.5653 O   0  0  0  0  0  0  0  0  0  0  0  0
    6.7216    5.8224   -6.5476 O   0  0  0  0  0  0  0  0  0  0  0  0
    7.4305    4.8129   -6.0074 C   0  0  0  0  0  0  0  0  0  0  0  0
    8.5976    4.5297   -6.0883 O   0  0  0  0  0  0  0  0  0  0  0  0
    1.1762    2.8778   -1.3913 C   0  0  0  0  0  0  0  0  0  0  0  0
    2.0838    2.0900   -1.1827 O   0  0  0  0  0  0  0  0  0  0  0  0
    0.0513    2.5755   -2.3405 C   0  0  0  0  0  0  0  0  0  0  0  0
   -0.5543    1.5215   -2.2564 O   0  0  0  0  0  0  0  0  0  0  0  0
   -0.3961    3.6836   -3.2693 C   0  0  0  0  0  0  0  0  0  0  0  0
   -1.1079    3.4657   -4.2341 O   0  0  0  0  0  0  0  0  0  0  0  0
  1  2  1  0  0  0  0
  2  3  2  0  0  0  0
  3  4  1  0  0  0  0
  3 51  1  0  0  0  0
  4  5  1  0  0  0  0
  5  6  1  1  0  0  0
  5 47  1  0  0  0  0
  6  7  1  0  0  0  0
  7  8  2  0  0  0  0
  7 12  1  0  0  0  0
  8  9  1  0  0  0  0
  8 24  1  0  0  0  0
  9 10  1  0  0  0  0
 10 11  2  0  0  0  0
 10 20  1  0  0  0  0
 11 12  1  0  0  0  0
 11 13  1  0  0  0  0
 13 14  2  0  0  0  0
 13 18  1  0  0  0  0
 14 15  1  0  0  0  0
 15 16  2  0  0  0  0
 16 17  1  0  0  0  0
 17 18  2  0  0  0  0
 18 19  1  0  0  0  0
 19 20  1  0  0  0  0
 19 21  1  0  0  0  0
 21 22  1  0  0  0  0
 21 23  1  0  0  0  0
 22 23  1  0  0  0  0
 24 25  2  0  0  0  0
 24 30  1  0  0  0  0
 25 26  1  0  0  0  0
 26 27  1  0  0  0  0
 26 28  2  0  0  0  0
 28 29  1  0  0  0  0
 29 30  2  0  0  0  0
 29 40  1  0  0  0  0
 30 31  1  0  0  0  0
 31 32  2  0  0  0  0
 32 33  1  0  0  0  0
 32 39  1  0  0  0  0
 33 34  2  0  0  0  0
 33 35  1  0  0  0  0
 35 36  2  0  0  0  0
 37 35  1  1  0  0  0
 37 38  1  0  0  0  0
 37 42  1  0  0  0  0
 38 39  1  0  0  0  0
 39 40  2  0  0  0  0
 40 41  1  0  0  0  0
 42 43  1  1  0  0  0
 42 44  1  0  0  0  0
 42 45  1  0  0  0  0
 44 45  1  0  0  0  0
 45 46  2  0  0  0  0
 47 48  2  0  0  0  0
 47 49  1  0  0  0  0
 49 50  2  0  0  0  0
 49 51  1  0  0  0  0
 51 52  2  0  0  0  0
M  CHG  1  26   1
M  END
$$$$