
 OpenBabel11252002283D

 52 61  0  0  1  0  0  0  0  0999 V2000
   -3.2766  -15.2118   11.5431 O   0  0  0  0  0  0  0  0  0  0  0  0
   -3.9843  -15.0181   12.7028 C   0  0  0  0  0  0  0  0  0  0  0  0
   -4.4554  -13.8196   13.0667 C   0  0  0  0  0  0  0  0  0  0  0  0
   -4.2308  -12.7054   12.2745 O   0  0  0  0  0  0  0  0  0  0  0  0
   -5.4065  -11.9074   12.1498 C   0  0  2  0  0  0  0  0  0  0  0  0
   -5.2652  -10.9741   11.0731 O   0  0  0  0  0  0  0  0  0  0  0  0
   -5.2511  -11.5382    9.7960 C   0  0  0  0  0  0  0  0  0  0  0  0
   -4.7146  -10.8700    8.7553 C   0  0  0  0  0  0  0  0  0  0  0  0
   -4.7733  -11.3107    7.4417 O   0  0  0  0  0  0  0  0  0  0  0  0
   -5.4615  -12.4790    7.1527 C   0  0  0  0  0  0  0  0  0  0  0  0
   -6.0069  -13.2362    8.1181 C   0  0  0  0  0  0  0  0  0  0  0  0
   -5.9316  -12.8703    9.5597 C   0  0  0  0  0  0  0  0  0  0  0  0
   -6.7056  -14.4718    7.7410 C   0  0  0  0  0  0  0  0  0  0  0  0
   -7.0486  -15.3100    8.7406 N   0  0  0  0  0  0  0  0  0  0  0  0
   -7.6673  -16.4385    8.3643 C   0  0  0  0  0  0  0  0  0  0  0  0
   -7.9797  -16.7802    7.1062 N   0  0  0  0  0  0  0  0  0  0  0  0
   -7.6343  -15.9012    6.1470 C   0  0  0  0  0  0  0  0  0  0  0  0
   -6.9831  -14.7161    6.4062 C   0  0  0  0  0  0  0  0  0  0  0  0
   -6.6523  -13.6993    5.3532 C   0  0  3  0  0  0  0  0  0  0  0  0
   -5.5823  -12.8079    5.8211 N   0  0  0  0  0  0  0  0  0  0  0  0
   -7.8843  -12.8662    5.0420 C   0  0  0  0  0  0  0  0  0  0  0  0
   -7.8432  -11.8376    3.9965 N   0  0  0  0  0  0  0  0  0  0  0  0
   -8.6396  -13.0029    3.8041 N   0  0  0  0  0  0  0  0  0  0  0  0
   -4.1118   -9.5429    8.9016 C   0  0  0  0  0  0  0  0  0  0  0  0
   -4.9259   -8.4566    8.6185 C   0  0  0  0  0  0  0  0  0  0  0  0
   -4.4655   -7.2141    8.7590 N   0  3  0  0  0  0  0  0  0  0  0  0
   -5.2832   -6.1811    8.4821 F   0  0  0  0  0  0  0  0  0  0  0  0
   -3.2417   -6.9522    9.1786 N   0  0  0  0  0  0  0  0  0  0  0  0
   -2.4073   -7.9577    9.4798 C   0  0  0  0  0  0  0  0  0  0  0  0
   -2.7965   -9.3074    9.3383 C   0  0  0  0  0  0  0  0  0  0  0  0
   -1.8665  -10.3357    9.6309 C   0  0  0  0  0  0  0  0  0  0  0  0
   -0.5895  -10.0164   10.0913 C   0  0  0  0  0  0  0  0  0  0  0  0
   -0.2221   -8.6935   10.2741 C   0  0  0  0  0  0  0  0  0  0  0  0
   -1.1219   -7.6556    9.9754 C   0  0  0  0  0  0  0  0  0  0  0  0
   -0.6557   -6.3212    9.9847 N   0  0  0  0  0  0  0  0  0  0  0  0
    1.0369   -8.3748   10.7332 O   0  0  0  0  0  0  0  0  0  0  0  0
    1.5002   -9.2787   11.7735 C   0  0  1  0  0  0  0  0  0  0  0  0
    1.3892  -10.7326   11.5041 C   0  0  0  0  0  0  0  0  0  0  0  0
    1.8616  -11.5913   12.2299 O   0  0  0  0  0  0  0  0  0  0  0  0
    0.4070  -11.0512   10.3923 C   0  0  0  0  0  0  0  0  0  0  0  0
    0.4040  -12.1158    9.7985 O   0  0  0  0  0  0  0  0  0  0  0  0
    2.6250   -8.8588   12.5066 O   0  0  0  0  0  0  0  0  0  0  0  0
    1.3418   -8.8720   13.2080 C   0  0  1  0  0  0  0  0  0  0  0  0
    0.5634   -7.6133   13.2156 O   0  0  0  0  0  0  0  0  0  0  0  0
    1.4014   -7.8399   14.2033 C   0  0  0  0  0  0  0  0  0  0  0  0
    1.2315   -7.8335   15.4058 O   0  0  0  0  0  0  0  0  0  0  0  0
   -5.6342  -11.2353   13.4896 C   0  0  0  0  0  0  0  0  0  0  0  0
   -5.7917  -10.0378   13.6709 O   0  0  0  0  0  0  0  0  0  0  0  0
   -5.6991  -12.2551   14.6121 C   0  0  0  0  0  0  0  0  0  0  0  0
   -6.1334  -11.9393   15.7066 O   0  0  0  0  0  0  0  0  0  0  0  0
   -5.2599  -13.6877   14.3199 C   0  0  0  0  0  0  0  0  0  0  0  0
   -5.6084  -14.6284   15.0109 O   0  0  0  0  0  0  0  0  0  0  0  0
  1  2  1  0  0  0  0
  2  3  2  0  0  0  0
  3  4  1  0  0  0  0
  3 51  1  0  0  0  0
  4  5  1  0  0  0  0
  5  6  1  6  0  0  0
  5 47  1  0  0  0  0
  6  7  1  0  0  0  0
  7  8  2  0  0  0  0
  7 12  1  0  0  0  0
  8  9  1  0  0  0  0
  8 24  1  0  0  0  0
  9 10  1  0  0  0  0
 10 11  2  0  0  0  0
 10 20  1  0  0  0  0
 11 12  1  0  0  0  0
 11 13  1  0  0  0  0
 13 14  2  0  0  0  0
 13 18  1  0  0  0  0
 14 15  1  0  0  0  0
 15 16  2  0  0  0  0
 16 17  1  0  0  0  0
 17 18  2  0  0  0  0
 18 19  1  0  0  0  0
 19 20  1  0  0  0  0
 19 21  1  0  0  0  0
 21 22  1  0  0  0  0
 21 23  1  0  0  0  0
 22 23  1  0  0  0  0
 24 25  2  0  0  0  0
 24 30  1  0  0  0  0
 25 26  1  0  0  0  0
 26 27  1  0  0  0  0
 26 28  2  0  0  0  0
 28 29  1  0  0  0  0
 29 30  2  0  0  0  0
 29 34  1  0  0  0  0
 30 31  1  0  0  0  0
 31 32  2  0  0  0  0
 32 33  1  0  0  0  0
 32 40  1  0  0  0  0
 33 34  2  0  0  0  0
 33 36  1  0  0  0  0
 34 35  1  0  0  0  0
 37 36  1  6  0  0  0
 37 38  1  0  0  0  0
 37 42  1  0  0  0  0
 37 43  1  0  0  0  0
 38 39  2  0  0  0  0
 38 40  1  0  0  0  0
 40 41  2  0  0  0  0
 43 42  1  6  0  0  0
 43 44  1  0  0  0  0
 43 45  1  0  0  0  0
 44 45  1  0  0  0  0
 45 46  2  0  0  0  0
 47 48  2  0  0  0  0
 47 49  1  0  0  0  0
 49 50  2  0  0  0  0
 49 51  1  0  0  0  0
 51 52  2  0  0  0  0
M  CHG  1  26   1
M  END
$$$$