
 OpenBabel11212013573D

 54 62  0  0  1  0  0  0  0  0999 V2000
    7.1737   -2.4052    5.2907 O   0  0  0  0  0  0  0  0  0  0  0  0
    7.0831   -1.1069    4.8582 C   0  0  0  0  0  0  0  0  0  0  0  0
    5.9989   -0.6253    4.2376 C   0  0  0  0  0  0  0  0  0  0  0  0
    4.9318   -1.4487    3.9241 O   0  0  0  0  0  0  0  0  0  0  0  0
    3.6300   -0.8718    4.0763 C   0  0  2  0  0  0  0  0  0  0  0  0
    2.6060   -1.8429    3.7742 O   0  0  0  0  0  0  0  0  0  0  0  0
    2.6319   -2.9833    4.5814 C   0  0  0  0  0  0  0  0  0  0  0  0
    2.1573   -4.1812    4.1623 C   0  0  0  0  0  0  0  0  0  0  0  0
    2.2145   -5.3374    4.9527 O   0  0  0  0  0  0  0  0  0  0  0  0
    2.7830   -5.2654    6.2265 C   0  0  0  0  0  0  0  0  0  0  0  0
    3.1785   -4.0983    6.7567 C   0  0  0  0  0  0  0  0  0  0  0  0
    3.1303   -2.8276    5.9989 C   0  0  0  0  0  0  0  0  0  0  0  0
    3.7913   -4.0188    8.1272 C   0  0  3  0  0  0  0  0  0  0  0  0
    2.9368   -3.2308    8.9485 O   0  0  0  0  0  0  0  0  0  0  0  0
    3.1829   -3.1456   10.2810 C   0  0  0  0  0  0  0  0  0  0  0  0
    2.6496   -2.2849   10.9678 O   0  0  0  0  0  0  0  0  0  0  0  0
    4.0153   -4.0693   10.8231 O   0  0  0  0  0  0  0  0  0  0  0  0
    4.6407   -5.1156   10.0858 C   0  0  3  0  0  0  0  0  0  0  0  0
    3.9824   -5.3331    8.7809 C   0  0  0  0  0  0  0  0  0  0  0  0
    3.5854   -6.4867    8.1966 C   0  0  0  0  0  0  0  0  0  0  0  0
    2.9525   -6.4232    6.9521 N   0  0  0  0  0  0  0  0  0  0  0  0
    3.7992   -7.8366    8.7752 C   0  0  0  0  0  0  0  0  0  0  0  0
    3.3945   -9.0361    8.0932 O   0  0  0  0  0  0  0  0  0  0  0  0
    4.7939   -8.7269    8.2429 O   0  0  0  0  0  0  0  0  0  0  0  0
    5.9865   -4.7468    9.8345 O   0  0  0  0  0  0  0  0  0  0  0  0
    1.3919   -4.3373    2.9035 C   0  0  0  0  0  0  0  0  0  0  0  0
    0.0095   -4.2046    2.9885 C   0  0  0  0  0  0  0  0  0  0  0  0
   -0.8017   -4.2237    1.9088 N   0  0  0  0  0  0  0  0  0  0  0  0
   -0.2661   -4.3456    0.6744 N   0  0  0  0  0  0  0  0  0  0  0  0
    1.0483   -4.4975    0.5175 C   0  0  0  0  0  0  0  0  0  0  0  0
    1.9410   -4.5409    1.6122 C   0  0  0  0  0  0  0  0  0  0  0  0
    3.3054   -4.7962    1.3268 C   0  0  0  0  0  0  0  0  0  0  0  0
    3.7634   -4.9484    0.0027 C   0  0  0  0  0  0  0  0  0  0  0  0
    5.1546   -5.3321   -0.2563 C   0  0  0  0  0  0  0  0  0  0  0  0
    5.8532   -5.7579    0.6469 O   0  0  0  0  0  0  0  0  0  0  0  0
    5.6684   -5.2268   -1.6727 C   0  0  0  0  0  0  0  0  0  0  0  0
    6.8426   -5.4514   -1.9233 O   0  0  0  0  0  0  0  0  0  0  0  0
    4.6534   -4.7739   -2.7024 C   0  0  1  0  0  0  0  0  0  0  0  0
    3.2508   -4.8716   -2.3720 O   0  0  0  0  0  0  0  0  0  0  0  0
    2.8894   -4.7995   -1.0624 C   0  0  0  0  0  0  0  0  0  0  0  0
    1.5377   -4.5935   -0.7755 C   0  0  0  0  0  0  0  0  0  0  0  0
    0.6193   -4.4846   -1.7925 N   0  3  0  0  0  0  0  0  0  0  0  0
   -0.0894   -4.3878   -2.6341 N   0  0  0  0  0  0  0  0  0  0  0  0
    4.9617   -3.3788   -3.1793 C   0  0  1  0  0  0  0  0  0  0  0  0
    4.8522   -2.3190   -2.2049 O   0  0  0  0  0  0  0  0  0  0  0  0
    6.0144   -3.2471   -4.1373 O   0  0  0  0  0  0  0  0  0  0  0  0
    4.7715   -3.0201   -4.5825 C   0  0  0  0  0  0  0  0  0  0  0  0
    4.0906   -3.5441   -5.4352 O   0  0  0  0  0  0  0  0  0  0  0  0
    3.5373    0.3472    3.1805 C   0  0  0  0  0  0  0  0  0  0  0  0
    2.7353    0.5444    2.2821 O   0  0  0  0  0  0  0  0  0  0  0  0
    4.6168    1.3413    3.5183 C   0  0  0  0  0  0  0  0  0  0  0  0
    4.3467    2.5245    3.6334 O   0  0  0  0  0  0  0  0  0  0  0  0
    5.9970    0.8123    3.8478 C   0  0  0  0  0  0  0  0  0  0  0  0
    6.9910    1.5146    3.7965 O   0  0  0  0  0  0  0  0  0  0  0  0
  1  2  1  0  0  0  0
  2  3  2  0  0  0  0
  3  4  1  0  0  0  0
  3 53  1  0  0  0  0
  4  5  1  0  0  0  0
  5  6  1  6  0  0  0
  5 49  1  0  0  0  0
  6  7  1  0  0  0  0
  7  8  2  0  0  0  0
  7 12  1  0  0  0  0
  8  9  1  0  0  0  0
  8 26  1  0  0  0  0
  9 10  1  0  0  0  0
 10 11  2  0  0  0  0
 10 21  1  0  0  0  0
 11 12  1  0  0  0  0
 11 13  1  0  0  0  0
 13 14  1  0  0  0  0
 13 19  1  0  0  0  0
 14 15  1  0  0  0  0
 15 16  2  0  0  0  0
 15 17  1  0  0  0  0
 17 18  1  0  0  0  0
 18 19  1  0  0  0  0
 18 25  1  0  0  0  0
 19 20  2  0  0  0  0
 20 21  1  0  0  0  0
 20 22  1  0  0  0  0
 22 23  1  0  0  0  0
 22 24  1  0  0  0  0
 23 24  1  0  0  0  0
 26 27  2  0  0  0  0
 26 31  1  0  0  0  0
 27 28  1  0  0  0  0
 28 29  2  0  0  0  0
 29 30  1  0  0  0  0
 30 31  2  0  0  0  0
 30 41  1  0  0  0  0
 31 32  1  0  0  0  0
 32 33  2  0  0  0  0
 33 34  1  0  0  0  0
 33 40  1  0  0  0  0
 34 35  2  0  0  0  0
 34 36  1  0  0  0  0
 36 37  2  0  0  0  0
 38 36  1  1  0  0  0
 38 39  1  0  0  0  0
 38 44  1  0  0  0  0
 39 40  1  0  0  0  0
 40 41  2  0  0  0  0
 41 42  1  0  0  0  0
 42 43  3  0  0  0  0
 44 45  1  1  0  0  0
 44 46  1  0  0  0  0
 44 47  1  0  0  0  0
 46 47  1  0  0  0  0
 47 48  2  0  0  0  0
 49 50  2  0  0  0  0
 49 51  1  0  0  0  0
 51 52  2  0  0  0  0
 51 53  1  0  0  0  0
 53 54  2  0  0  0  0
M  CHG  1  42   1
M  END
$$$$