
 OpenBabel11282003413D

 54 62  0  0  1  0  0  0  0  0999 V2000
    3.5271    4.7270    2.2820 O   0  0  0  0  0  0  0  0  0  0  0  0
    3.8838    3.4219    2.0531 C   0  0  0  0  0  0  0  0  0  0  0  0
    3.4991    2.7524    0.9606 C   0  0  0  0  0  0  0  0  0  0  0  0
    2.6789    3.3477    0.0262 O   0  0  0  0  0  0  0  0  0  0  0  0
    3.1011    3.0687   -1.3066 C   0  0  2  0  0  0  0  0  0  0  0  0
    2.4073    3.9001   -2.2358 O   0  0  0  0  0  0  0  0  0  0  0  0
    2.5766    5.2737   -2.0627 C   0  0  0  0  0  0  0  0  0  0  0  0
    1.6179    6.1479   -2.4323 C   0  0  0  0  0  0  0  0  0  0  0  0
    1.7231    7.5269   -2.3029 O   0  0  0  0  0  0  0  0  0  0  0  0
    2.8813    8.0602   -1.7817 C   0  0  0  0  0  0  0  0  0  0  0  0
    3.9341    7.2679   -1.3834 C   0  0  0  0  0  0  0  0  0  0  0  0
    3.8744    5.7835   -1.5000 C   0  0  0  0  0  0  0  0  0  0  0  0
    5.0409    7.9154   -0.8485 C   0  0  0  0  0  0  0  0  0  0  0  0
    6.0946    7.1286   -0.3712 O   0  0  0  0  0  0  0  0  0  0  0  0
    7.3138    7.6662    0.0320 C   0  0  0  0  0  0  0  0  0  0  0  0
    8.2391    6.9426    0.3783 O   0  0  0  0  0  0  0  0  0  0  0  0
    7.4455    9.0104   -0.0543 O   0  0  0  0  0  0  0  0  0  0  0  0
    6.3228    9.8830   -0.1266 C   0  0  3  0  0  0  0  0  0  0  0  0
    5.1072    9.2868   -0.7384 C   0  0  0  0  0  0  0  0  0  0  0  0
    3.9994   10.0301   -1.1592 C   0  0  0  0  0  0  0  0  0  0  0  0
    2.8961    9.4069   -1.6692 N   0  0  0  0  0  0  0  0  0  0  0  0
    3.9545   11.5349   -1.0352 C   0  0  0  0  0  0  0  0  0  0  0  0
    4.9500   12.2984   -1.7374 O   0  0  0  0  0  0  0  0  0  0  0  0
    3.5873   12.2904   -2.2004 O   0  0  0  0  0  0  0  0  0  0  0  0
    5.9919   10.3237    1.1791 O   0  0  0  0  0  0  0  0  0  0  0  0
    0.3375    5.7084   -3.0175 C   0  0  0  0  0  0  0  0  0  0  0  0
    0.3476    5.6547   -4.3709 N   0  0  0  0  0  0  0  0  0  0  0  0
   -0.7700    5.2103   -4.9627 C   0  0  0  0  0  0  0  0  0  0  0  0
   -0.7730    5.1324   -6.3012 F   0  0  0  0  0  0  0  0  0  0  0  0
   -1.9117    4.8324   -4.2838 C   0  0  0  0  0  0  0  0  0  0  0  0
   -1.9452    4.9092   -2.8810 C   0  0  0  0  0  0  0  0  0  0  0  0
   -0.7796    5.3598   -2.2156 C   0  0  0  0  0  0  0  0  0  0  0  0
   -0.7873    5.4280   -0.7994 C   0  0  0  0  0  0  0  0  0  0  0  0
   -1.8889    5.0159   -0.0419 C   0  0  0  0  0  0  0  0  0  0  0  0
   -3.0108    4.5238   -0.7126 C   0  0  0  0  0  0  0  0  0  0  0  0
   -3.0869    4.5399   -2.1212 C   0  0  0  0  0  0  0  0  0  0  0  0
   -4.2383    3.9925   -2.7390 N   0  0  0  0  0  0  0  0  0  0  0  0
   -4.1285    4.0647   -0.0469 O   0  0  0  0  0  0  0  0  0  0  0  0
   -3.8858    3.4695    1.2372 C   0  0  2  0  0  0  0  0  0  0  0  0
   -2.9370    4.2465    2.1330 C   0  0  0  0  0  0  0  0  0  0  0  0
   -2.9447    4.1206    3.3564 O   0  0  0  0  0  0  0  0  0  0  0  0
   -1.9246    5.0527    1.4175 C   0  0  0  0  0  0  0  0  0  0  0  0
   -0.7818    5.9394    2.3374 Cl  0  3  0  0  0  0  0  0  0  0  0  0
   -3.4953    2.0257    1.0954 C   0  0  1  0  0  0  0  0  0  0  0  0
   -4.4578    1.1737    0.4255 O   0  0  0  0  0  0  0  0  0  0  0  0
   -2.1219    1.7977    0.7696 O   0  0  0  0  0  0  0  0  0  0  0  0
   -2.5417    1.3274    1.9660 C   0  0  0  0  0  0  0  0  0  0  0  0
   -2.5318    0.1943    2.3792 O   0  0  0  0  0  0  0  0  0  0  0  0
    2.8693    1.5773   -1.5410 C   0  0  0  0  0  0  0  0  0  0  0  0
    2.2660    1.1315   -2.5179 O   0  0  0  0  0  0  0  0  0  0  0  0
    3.5627    0.6736   -0.5438 C   0  0  3  0  0  0  0  0  0  0  0  0
    3.9744    1.3507    0.7473 C   0  0  0  0  0  0  0  0  0  0  0  0
    4.6899    0.7945    1.5801 O   0  0  0  0  0  0  0  0  0  0  0  0
    2.8288   -0.4510   -0.2903 F   0  0  0  0  0  0  0  0  0  0  0  0
  1  2  1  0  0  0  0
  2  3  2  0  0  0  0
  3  4  1  0  0  0  0
  3 52  1  0  0  0  0
  4  5  1  0  0  0  0
  5  6  1  6  0  0  0
  5 49  1  0  0  0  0
  6  7  1  0  0  0  0
  7  8  2  0  0  0  0
  7 12  1  0  0  0  0
  8  9  1  0  0  0  0
  8 26  1  0  0  0  0
  9 10  1  0  0  0  0
 10 11  2  0  0  0  0
 10 21  1  0  0  0  0
 11 12  1  0  0  0  0
 11 13  1  0  0  0  0
 13 14  1  0  0  0  0
 13 19  2  0  0  0  0
 14 15  1  0  0  0  0
 15 16  2  0  0  0  0
 15 17  1  0  0  0  0
 17 18  1  0  0  0  0
 18 19  1  0  0  0  0
 18 25  1  0  0  0  0
 19 20  1  0  0  0  0
 20 21  2  0  0  0  0
 20 22  1  0  0  0  0
 22 23  1  0  0  0  0
 22 24  1  0  0  0  0
 23 24  1  0  0  0  0
 26 27  2  0  0  0  0
 26 32  1  0  0  0  0
 27 28  1  0  0  0  0
 28 29  1  0  0  0  0
 28 30  2  0  0  0  0
 30 31  1  0  0  0  0
 31 32  2  0  0  0  0
 31 36  1  0  0  0  0
 32 33  1  0  0  0  0
 33 34  2  0  0  0  0
 34 35  1  0  0  0  0
 34 42  1  0  0  0  0
 35 36  2  0  0  0  0
 35 38  1  0  0  0  0
 36 37  1  0  0  0  0
 39 38  1  6  0  0  0
 39 40  1  0  0  0  0
 39 44  1  0  0  0  0
 40 41  2  0  0  0  0
 40 42  1  0  0  0  0
 42 43  2  0  0  0  0
 44 45  1  6  0  0  0
 44 46  1  0  0  0  0
 44 47  1  0  0  0  0
 46 47  1  0  0  0  0
 47 48  2  0  0  0  0
 49 50  2  0  0  0  0
 49 51  1  0  0  0  0
 51 52  1  0  0  0  0
 51 54  1  0  0  0  0
 52 53  2  0  0  0  0
M  CHG  1  43   1
M  END
$$$$