
 OpenBabel11252002193D

 52 61  0  0  1  0  0  0  0  0999 V2000
   -2.8798  -18.9453   -3.6172 N   0  0  0  0  0  0  0  0  0  0  0  0
   -1.9893  -19.0883   -2.5833 C   0  0  0  0  0  0  0  0  0  0  0  0
   -1.6537  -18.1933   -1.6422 C   0  0  0  0  0  0  0  0  0  0  0  0
   -2.1507  -16.9039   -1.6542 O   0  0  0  0  0  0  0  0  0  0  0  0
   -2.6723  -16.4910   -0.3937 C   0  0  2  0  0  0  0  0  0  0  0  0
   -3.2337  -15.1528   -0.4122 O   0  0  0  0  0  0  0  0  0  0  0  0
   -3.8854  -14.6962   -1.5452 C   0  0  0  0  0  0  0  0  0  0  0  0
   -3.9256  -13.3763   -1.8457 C   0  0  0  0  0  0  0  0  0  0  0  0
   -4.5596  -12.9088   -2.9946 O   0  0  0  0  0  0  0  0  0  0  0  0
   -5.3314  -13.7543   -3.7691 C   0  0  0  0  0  0  0  0  0  0  0  0
   -5.3834  -15.0705   -3.5269 C   0  0  0  0  0  0  0  0  0  0  0  0
   -4.6325  -15.6975   -2.4039 C   0  0  0  0  0  0  0  0  0  0  0  0
   -6.1458  -15.9247   -4.4449 C   0  0  0  0  0  0  0  0  0  0  0  0
   -6.0013  -17.2565   -4.2923 N   0  0  0  0  0  0  0  0  0  0  0  0
   -6.6782  -18.0192   -5.1630 C   0  0  0  0  0  0  0  0  0  0  0  0
   -7.4628  -17.5714   -6.1529 N   0  0  0  0  0  0  0  0  0  0  0  0
   -7.5818  -16.2350   -6.2592 C   0  0  0  0  0  0  0  0  0  0  0  0
   -6.9349  -15.3488   -5.4260 C   0  0  0  0  0  0  0  0  0  0  0  0
   -7.1087  -13.8598   -5.5099 C   0  0  3  0  0  0  0  0  0  0  0  0
   -6.0233  -13.1685   -4.8038 N   0  0  0  0  0  0  0  0  0  0  0  0
   -8.4482  -13.4755   -4.9110 C   0  0  0  0  0  0  0  0  0  0  0  0
   -8.9219  -12.0936   -4.8789 N   0  0  0  0  0  0  0  0  0  0  0  0
   -9.5543  -13.0226   -5.7507 N   0  0  0  0  0  0  0  0  0  0  0  0
   -3.3183  -12.2763   -1.0370 C   0  0  0  0  0  0  0  0  0  0  0  0
   -2.0777  -12.4695   -0.4373 C   0  0  0  0  0  0  0  0  0  0  0  0
   -1.4837  -11.4923    0.2521 N   0  3  0  0  0  0  0  0  0  0  0  0
   -0.2925  -11.7348    0.8324 F   0  0  0  0  0  0  0  0  0  0  0  0
   -2.0026  -10.2840    0.3682 N   0  0  0  0  0  0  0  0  0  0  0  0
   -3.1829  -10.0118   -0.1965 C   0  0  0  0  0  0  0  0  0  0  0  0
   -3.9101  -10.9879   -0.9025 C   0  0  0  0  0  0  0  0  0  0  0  0
   -5.1680  -10.6016   -1.4413 C   0  0  0  0  0  0  0  0  0  0  0  0
   -5.6408   -9.2857   -1.3650 C   0  0  0  0  0  0  0  0  0  0  0  0
   -4.9219   -8.3357   -0.6721 C   0  0  0  0  0  0  0  0  0  0  0  0
   -3.7073   -8.7162   -0.0961 C   0  0  0  0  0  0  0  0  0  0  0  0
   -2.9928   -7.7881    0.5613 F   0  0  0  0  0  0  0  0  0  0  0  0
   -5.3100   -7.0284   -0.5604 O   0  0  0  0  0  0  0  0  0  0  0  0
   -6.6886   -6.7372   -0.9039 C   0  0  1  0  0  0  0  0  0  0  0  0
   -7.2598   -7.4494   -2.0559 C   0  0  0  0  0  0  0  0  0  0  0  0
   -7.9656   -6.9298   -2.9019 O   0  0  0  0  0  0  0  0  0  0  0  0
   -6.8454   -8.8981   -2.1098 C   0  0  0  0  0  0  0  0  0  0  0  0
   -7.4354   -9.7078   -2.8067 O   0  0  0  0  0  0  0  0  0  0  0  0
   -7.5707   -6.4942    0.1615 O   0  0  0  0  0  0  0  0  0  0  0  0
   -7.2020   -5.3501   -0.6795 C   0  0  1  0  0  0  0  0  0  0  0  0
   -6.0484   -4.5253   -0.2351 O   0  0  0  0  0  0  0  0  0  0  0  0
   -7.2552   -4.1858    0.1567 C   0  0  0  0  0  0  0  0  0  0  0  0
   -7.8706   -3.1474    0.1090 O   0  0  0  0  0  0  0  0  0  0  0  0
   -1.5037  -16.3965    0.5716 C   0  0  0  0  0  0  0  0  0  0  0  0
   -1.2036  -15.3986    1.2204 O   0  0  0  0  0  0  0  0  0  0  0  0
   -0.6372  -17.6326    0.5861 C   0  0  0  0  0  0  0  0  0  0  0  0
    0.1058  -17.8305    1.5333 O   0  0  0  0  0  0  0  0  0  0  0  0
   -0.6905  -18.5981   -0.5821 C   0  0  0  0  0  0  0  0  0  0  0  0
    0.0011  -19.5995   -0.6233 O   0  0  0  0  0  0  0  0  0  0  0  0
  1  2  1  0  0  0  0
  2  3  2  0  0  0  0
  3  4  1  0  0  0  0
  3 51  1  0  0  0  0
  4  5  1  0  0  0  0
  5  6  1  6  0  0  0
  5 47  1  0  0  0  0
  6  7  1  0  0  0  0
  7  8  2  0  0  0  0
  7 12  1  0  0  0  0
  8  9  1  0  0  0  0
  8 24  1  0  0  0  0
  9 10  1  0  0  0  0
 10 11  2  0  0  0  0
 10 20  1  0  0  0  0
 11 12  1  0  0  0  0
 11 13  1  0  0  0  0
 13 14  2  0  0  0  0
 13 18  1  0  0  0  0
 14 15  1  0  0  0  0
 15 16  2  0  0  0  0
 16 17  1  0  0  0  0
 17 18  2  0  0  0  0
 18 19  1  0  0  0  0
 19 20  1  0  0  0  0
 19 21  1  0  0  0  0
 21 22  1  0  0  0  0
 21 23  1  0  0  0  0
 22 23  1  0  0  0  0
 24 25  2  0  0  0  0
 24 30  1  0  0  0  0
 25 26  1  0  0  0  0
 26 27  1  0  0  0  0
 26 28  2  0  0  0  0
 28 29  1  0  0  0  0
 29 30  2  0  0  0  0
 29 34  1  0  0  0  0
 30 31  1  0  0  0  0
 31 32  2  0  0  0  0
 32 33  1  0  0  0  0
 32 40  1  0  0  0  0
 33 34  2  0  0  0  0
 33 36  1  0  0  0  0
 34 35  1  0  0  0  0
 37 36  1  1  0  0  0
 37 38  1  0  0  0  0
 37 42  1  0  0  0  0
 37 43  1  0  0  0  0
 38 39  2  0  0  0  0
 38 40  1  0  0  0  0
 40 41  2  0  0  0  0
 43 42  1  1  0  0  0
 43 44  1  0  0  0  0
 43 45  1  0  0  0  0
 44 45  1  0  0  0  0
 45 46  2  0  0  0  0
 47 48  2  0  0  0  0
 47 49  1  0  0  0  0
 49 50  2  0  0  0  0
 49 51  1  0  0  0  0
 51 52  2  0  0  0  0
M  CHG  1  26   1
M  END
$$$$