
 OpenBabel11222000463D

 54 62  0  0  1  0  0  0  0  0999 V2000
   -0.3153   -4.4278   -3.0569 O   0  0  0  0  0  0  0  0  0  0  0  0
    0.0464   -3.1215   -2.8339 C   0  0  0  0  0  0  0  0  0  0  0  0
    0.6471   -2.7244   -1.7066 C   0  0  0  0  0  0  0  0  0  0  0  0
    0.8885   -3.6437   -0.6978 O   0  0  0  0  0  0  0  0  0  0  0  0
    2.0207   -3.3663    0.1139 C   0  0  2  0  0  0  0  0  0  0  0  0
    2.1661   -4.3718    1.1358 O   0  0  0  0  0  0  0  0  0  0  0  0
    2.3584   -5.6835    0.7228 C   0  0  0  0  0  0  0  0  0  0  0  0
    1.9563   -6.7336    1.4811 C   0  0  0  0  0  0  0  0  0  0  0  0
    2.1364   -8.0574    1.0415 O   0  0  0  0  0  0  0  0  0  0  0  0
    2.7997   -8.3285   -0.1618 C   0  0  0  0  0  0  0  0  0  0  0  0
    3.3184   -7.3336   -0.9012 C   0  0  0  0  0  0  0  0  0  0  0  0
    3.1109   -5.8954   -0.5651 C   0  0  0  0  0  0  0  0  0  0  0  0
    4.1442   -7.5861   -2.1278 C   0  0  3  0  0  0  0  0  0  0  0  0
    5.4633   -7.1767   -1.8139 O   0  0  0  0  0  0  0  0  0  0  0  0
    6.4510   -7.4085   -2.7221 C   0  0  0  0  0  0  0  0  0  0  0  0
    7.5291   -6.8569   -2.6318 O   0  0  0  0  0  0  0  0  0  0  0  0
    6.1616   -8.2984   -3.7032 O   0  0  0  0  0  0  0  0  0  0  0  0
    5.0471   -9.1849   -3.6807 C   0  0  3  0  0  0  0  0  0  0  0  0
    4.2164   -9.0222   -2.4596 C   0  0  0  0  0  0  0  0  0  0  0  0
    3.6177   -9.9812   -1.7188 C   0  0  0  0  0  0  0  0  0  0  0  0
    2.9243   -9.6453   -0.5595 O   0  3  0  0  0  0  0  0  0  0  0  0
    3.6798  -11.4234   -2.0481 C   0  0  0  0  0  0  0  0  0  0  0  0
    4.7215  -12.2521   -1.5186 O   0  0  0  0  0  0  0  0  0  0  0  0
    3.3671  -12.4124   -1.0533 O   0  0  0  0  0  0  0  0  0  0  0  0
    4.1861   -8.8678   -4.7559 O   0  0  0  0  0  0  0  0  0  0  0  0
    1.3084   -6.5789    2.8381 C   0  0  0  0  0  0  0  0  0  0  0  0
    1.6914   -5.4963    3.6416 C   0  0  0  0  0  0  0  0  0  0  0  0
    1.1255   -5.2641    4.8287 N   0  3  0  0  0  0  0  0  0  0  0  0
    1.5211   -4.1932    5.5444 F   0  0  0  0  0  0  0  0  0  0  0  0
    0.1883   -6.0383    5.3280 N   0  0  0  0  0  0  0  0  0  0  0  0
   -0.2204   -7.1068    4.6455 C   0  0  0  0  0  0  0  0  0  0  0  0
    0.3266   -7.4535    3.3884 C   0  0  0  0  0  0  0  0  0  0  0  0
   -0.1680   -8.6380    2.7841 C   0  0  0  0  0  0  0  0  0  0  0  0
   -1.1850   -9.4066    3.3728 C   0  0  0  0  0  0  0  0  0  0  0  0
   -1.6398  -10.6389    2.7255 C   0  0  0  0  0  0  0  0  0  0  0  0
   -0.9747  -11.1245    1.8212 O   0  0  0  0  0  0  0  0  0  0  0  0
   -2.9292  -11.2523    3.2355 C   0  0  0  0  0  0  0  0  0  0  0  0
   -3.3515  -12.2895    2.7484 O   0  0  0  0  0  0  0  0  0  0  0  0
   -3.6508  -10.4280    4.2842 C   0  0  1  0  0  0  0  0  0  0  0  0
   -2.7882   -9.6811    5.1604 O   0  0  0  0  0  0  0  0  0  0  0  0
   -1.7573   -9.0161    4.5631 C   0  0  0  0  0  0  0  0  0  0  0  0
   -1.2399   -7.8887    5.1967 C   0  0  0  0  0  0  0  0  0  0  0  0
   -1.7642   -7.5186    6.3762 F   0  0  0  0  0  0  0  0  0  0  0  0
   -4.6501   -9.5165    3.6439 C   0  0  1  0  0  0  0  0  0  0  0  0
   -4.1381   -8.5288    2.7115 O   0  0  0  0  0  0  0  0  0  0  0  0
   -5.8984  -10.1002    3.3356 O   0  0  0  0  0  0  0  0  0  0  0  0
   -5.8378   -9.1652    4.3622 N   0  3  0  0  0  0  0  0  0  0  0  0
   -6.3518   -8.0708    4.2415 O   0  0  0  0  0  0  0  0  0  0  0  0
    1.8188   -2.0237    0.7755 C   0  0  0  0  0  0  0  0  0  0  0  0
    1.7305   -1.8238    1.9769 O   0  0  0  0  0  0  0  0  0  0  0  0
    1.7149   -0.9400   -0.2633 C   0  0  0  0  0  0  0  0  0  0  0  0
    2.3108    0.1090   -0.0999 O   0  0  0  0  0  0  0  0  0  0  0  0
    1.0031   -1.2762   -1.5640 C   0  0  0  0  0  0  0  0  0  0  0  0
    0.7828   -0.4350   -2.4162 O   0  0  0  0  0  0  0  0  0  0  0  0
  1  2  1  0  0  0  0
  2  3  2  0  0  0  0
  3  4  1  0  0  0  0
  3 53  1  0  0  0  0
  4  5  1  0  0  0  0
  5  6  1  1  0  0  0
  5 49  1  0  0  0  0
  6  7  1  0  0  0  0
  7  8  2  0  0  0  0
  7 12  1  0  0  0  0
  8  9  1  0  0  0  0
  8 26  1  0  0  0  0
  9 10  1  0  0  0  0
 10 11  2  0  0  0  0
 10 21  1  0  0  0  0
 11 12  1  0  0  0  0
 11 13  1  0  0  0  0
 13 14  1  0  0  0  0
 13 19  1  0  0  0  0
 14 15  1  0  0  0  0
 15 16  2  0  0  0  0
 15 17  1  0  0  0  0
 17 18  1  0  0  0  0
 18 19  1  0  0  0  0
 18 25  1  0  0  0  0
 19 20  2  0  0  0  0
 20 21  1  0  0  0  0
 20 22  1  0  0  0  0
 22 23  1  0  0  0  0
 22 24  1  0  0  0  0
 23 24  1  0  0  0  0
 26 27  2  0  0  0  0
 26 32  1  0  0  0  0
 27 28  1  0  0  0  0
 28 29  1  0  0  0  0
 28 30  2  0  0  0  0
 30 31  1  0  0  0  0
 31 32  2  0  0  0  0
 31 42  1  0  0  0  0
 32 33  1  0  0  0  0
 33 34  2  0  0  0  0
 34 35  1  0  0  0  0
 34 41  1  0  0  0  0
 35 36  2  0  0  0  0
 35 37  1  0  0  0  0
 37 38  2  0  0  0  0
 39 37  1  6  0  0  0
 39 40  1  0  0  0  0
 39 44  1  0  0  0  0
 40 41  1  0  0  0  0
 41 42  2  0  0  0  0
 42 43  1  0  0  0  0
 44 45  1  6  0  0  0
 44 46  1  0  0  0  0
 44 47  1  0  0  0  0
 46 47  1  0  0  0  0
 47 48  2  0  0  0  0
 49 50  2  0  0  0  0
 49 51  1  0  0  0  0
 51 52  2  0  0  0  0
 51 53  1  0  0  0  0
 53 54  2  0  0  0  0
M  CHG  3  21   1  28   1  47   1
M  END
$$$$