
 OpenBabel11272001063D

 54 62  0  0  1  0  0  0  0  0999 V2000
   -2.2770    4.1203    2.9292 O   0  0  0  0  0  0  0  0  0  0  0  0
   -1.8780    2.8243    2.7204 C   0  0  0  0  0  0  0  0  0  0  0  0
   -0.9530    2.4922    1.8121 C   0  0  0  0  0  0  0  0  0  0  0  0
   -0.3877    3.4618    1.0057 O   0  0  0  0  0  0  0  0  0  0  0  0
    0.9983    3.2541    0.7668 C   0  0  2  0  0  0  0  0  0  0  0  0
    1.5613    4.3523    0.0268 O   0  0  0  0  0  0  0  0  0  0  0  0
    1.4753    5.6066    0.6286 C   0  0  0  0  0  0  0  0  0  0  0  0
    1.4332    6.7358   -0.1104 C   0  0  0  0  0  0  0  0  0  0  0  0
    1.4238    8.0181    0.4260 O   0  0  0  0  0  0  0  0  0  0  0  0
    1.5704    8.1740    1.7895 C   0  0  0  0  0  0  0  0  0  0  0  0
    1.6497    7.0966    2.6389 C   0  0  0  0  0  0  0  0  0  0  0  0
    1.5462    5.6980    2.1314 C   0  0  0  0  0  0  0  0  0  0  0  0
    1.8146    7.3732    3.9913 C   0  0  0  0  0  0  0  0  0  0  0  0
    1.9510    6.2849    4.8588 O   0  0  0  0  0  0  0  0  0  0  0  0
    2.0731    6.4071    6.2400 C   0  0  0  0  0  0  0  0  0  0  0  0
    2.1918    5.4150    6.9458 O   0  0  0  0  0  0  0  0  0  0  0  0
    1.9953    7.6576    6.7457 O   0  0  0  0  0  0  0  0  0  0  0  0
    2.0502    8.8395    5.9495 C   0  0  3  0  0  0  0  0  0  0  0  0
    1.8840    8.6587    4.4810 C   0  0  0  0  0  0  0  0  0  0  0  0
    1.8371    9.7097    3.5543 C   0  0  0  0  0  0  0  0  0  0  0  0
    1.6640    9.4487    2.2190 N   0  0  0  0  0  0  0  0  0  0  0  0
    2.0077   11.1573    3.9749 C   0  0  0  0  0  0  0  0  0  0  0  0
    3.3477   11.6753    3.9869 O   0  0  0  0  0  0  0  0  0  0  0  0
    2.4159   12.1051    2.9746 O   0  0  0  0  0  0  0  0  0  0  0  0
    1.0410    9.7161    6.4279 O   0  0  0  0  0  0  0  0  0  0  0  0
    1.5551    6.7264   -1.5795 C   0  0  0  0  0  0  0  0  0  0  0  0
    2.8373    6.8679   -1.9860 N   0  0  0  0  0  0  0  0  0  0  0  0
    3.0957    6.8624   -3.2792 N   0  3  0  0  0  0  0  0  0  0  0  0
    4.3737    7.0051   -3.6767 F   0  0  0  0  0  0  0  0  0  0  0  0
    2.1457    6.7133   -4.2033 C   0  0  0  0  0  0  0  0  0  0  0  0
    0.8082    6.5669   -3.8476 C   0  0  0  0  0  0  0  0  0  0  0  0
    0.4762    6.5890   -2.4796 C   0  0  0  0  0  0  0  0  0  0  0  0
   -0.8959    6.4868   -2.1350 C   0  0  0  0  0  0  0  0  0  0  0  0
   -1.8839    6.3310   -3.1250 C   0  0  0  0  0  0  0  0  0  0  0  0
   -3.3065    6.2961   -2.7594 C   0  0  0  0  0  0  0  0  0  0  0  0
   -3.6680    6.4332   -1.6024 O   0  0  0  0  0  0  0  0  0  0  0  0
   -4.3007    6.0950   -3.8816 C   0  0  0  0  0  0  0  0  0  0  0  0
   -5.4848    6.3541   -3.7297 O   0  0  0  0  0  0  0  0  0  0  0  0
   -3.7068    5.5100   -5.1357 C   0  0  1  0  0  0  0  0  0  0  0  0
   -2.4267    6.0588   -5.4872 O   0  0  0  0  0  0  0  0  0  0  0  0
   -1.5338    6.2437   -4.4657 C   0  0  0  0  0  0  0  0  0  0  0  0
   -0.1840    6.3615   -4.8352 C   0  0  0  0  0  0  0  0  0  0  0  0
    0.1612    6.4724   -6.2117 N   0  0  0  0  0  0  0  0  0  0  0  0
   -3.6445    4.0098   -5.0721 C   0  0  1  0  0  0  0  0  0  0  0  0
   -2.8658    3.4238   -4.0066 O   0  0  0  0  0  0  0  0  0  0  0  0
   -4.8534    3.3105   -5.3741 O   0  0  0  0  0  0  0  0  0  0  0  0
   -3.8612    3.2166   -6.2779 C   0  0  0  0  0  0  0  0  0  0  0  0
   -3.8180    3.5160   -7.4488 O   0  0  0  0  0  0  0  0  0  0  0  0
    1.1268    1.9396    0.0004 C   0  0  0  0  0  0  0  0  0  0  0  0
    1.6885    1.8564   -1.0931 O   0  0  0  0  0  0  0  0  0  0  0  0
    0.6090    0.7385    0.7617 C   0  0  3  0  0  0  0  0  0  0  0  0
   -0.5517    1.0527    1.6825 C   0  0  0  0  0  0  0  0  0  0  0  0
   -1.1160    0.1811    2.3421 O   0  0  0  0  0  0  0  0  0  0  0  0
    0.3108   -0.2986   -0.0763 F   0  0  0  0  0  0  0  0  0  0  0  0
  1  2  1  0  0  0  0
  2  3  2  0  0  0  0
  3  4  1  0  0  0  0
  3 52  1  0  0  0  0
  4  5  1  0  0  0  0
  5  6  1  6  0  0  0
  5 49  1  0  0  0  0
  6  7  1  0  0  0  0
  7  8  2  0  0  0  0
  7 12  1  0  0  0  0
  8  9  1  0  0  0  0
  8 26  1  0  0  0  0
  9 10  1  0  0  0  0
 10 11  2  0  0  0  0
 10 21  1  0  0  0  0
 11 12  1  0  0  0  0
 11 13  1  0  0  0  0
 13 14  1  0  0  0  0
 13 19  2  0  0  0  0
 14 15  1  0  0  0  0
 15 16  2  0  0  0  0
 15 17  1  0  0  0  0
 17 18  1  0  0  0  0
 18 19  1  0  0  0  0
 18 25  1  0  0  0  0
 19 20  1  0  0  0  0
 20 21  2  0  0  0  0
 20 22  1  0  0  0  0
 22 23  1  0  0  0  0
 22 24  1  0  0  0  0
 23 24  1  0  0  0  0
 26 27  2  0  0  0  0
 26 32  1  0  0  0  0
 27 28  1  0  0  0  0
 28 29  1  0  0  0  0
 28 30  2  0  0  0  0
 30 31  1  0  0  0  0
 31 32  2  0  0  0  0
 31 42  1  0  0  0  0
 32 33  1  0  0  0  0
 33 34  2  0  0  0  0
 34 35  1  0  0  0  0
 34 41  1  0  0  0  0
 35 36  2  0  0  0  0
 35 37  1  0  0  0  0
 37 38  2  0  0  0  0
 39 37  1  1  0  0  0
 39 40  1  0  0  0  0
 39 44  1  0  0  0  0
 40 41  1  0  0  0  0
 41 42  2  0  0  0  0
 42 43  1  0  0  0  0
 44 45  1  1  0  0  0
 44 46  1  0  0  0  0
 44 47  1  0  0  0  0
 46 47  1  0  0  0  0
 47 48  2  0  0  0  0
 49 50  2  0  0  0  0
 49 51  1  0  0  0  0
 51 52  1  0  0  0  0
 51 54  1  0  0  0  0
 52 53  2  0  0  0  0
M  CHG  1  28   1
M  END
$$$$