
 OpenBabel11222012363D

 54 62  0  0  1  0  0  0  0  0999 V2000
    6.1663   -3.5898    0.1631 O   0  0  0  0  0  0  0  0  0  0  0  0
    6.0950   -2.3107    0.6587 C   0  0  0  0  0  0  0  0  0  0  0  0
    5.1382   -1.9248    1.5116 C   0  0  0  0  0  0  0  0  0  0  0  0
    4.1572   -2.8256    1.8862 O   0  0  0  0  0  0  0  0  0  0  0  0
    3.3650   -2.5067    3.0188 C   0  0  2  0  0  0  0  0  0  0  0  0
    2.2388   -3.4189    3.0960 O   0  0  0  0  0  0  0  0  0  0  0  0
    2.5208   -4.7722    3.2312 C   0  0  0  0  0  0  0  0  0  0  0  0
    1.6971   -5.7117    2.7176 C   0  0  0  0  0  0  0  0  0  0  0  0
    1.9145   -7.0856    2.8922 O   0  0  0  0  0  0  0  0  0  0  0  0
    2.9624   -7.5273    3.7136 C   0  0  0  0  0  0  0  0  0  0  0  0
    3.8049   -6.6533    4.2954 C   0  0  0  0  0  0  0  0  0  0  0  0
    3.7171   -5.1724    4.0589 C   0  0  0  0  0  0  0  0  0  0  0  0
    4.9047   -7.1004    5.2218 C   0  0  3  0  0  0  0  0  0  0  0  0
    4.5942   -6.5942    6.5083 O   0  0  0  0  0  0  0  0  0  0  0  0
    5.4243   -6.9243    7.5352 C   0  0  0  0  0  0  0  0  0  0  0  0
    5.3826   -6.3311    8.5995 O   0  0  0  0  0  0  0  0  0  0  0  0
    6.2832   -7.9435    7.2981 O   0  0  0  0  0  0  0  0  0  0  0  0
    6.0590   -8.9293    6.2982 C   0  0  3  0  0  0  0  0  0  0  0  0
    4.9519   -8.5725    5.3701 C   0  0  0  0  0  0  0  0  0  0  0  0
    4.0901   -9.4046    4.7440 C   0  0  0  0  0  0  0  0  0  0  0  0
    3.0956   -8.8859    3.9189 O   0  3  0  0  0  0  0  0  0  0  0  0
    4.1185  -10.8880    4.8514 C   0  0  0  0  0  0  0  0  0  0  0  0
    2.9005  -11.6442    4.7381 O   0  0  0  0  0  0  0  0  0  0  0  0
    3.8860  -11.7025    3.6907 O   0  0  0  0  0  0  0  0  0  0  0  0
    7.2057   -9.0218    5.4793 O   0  0  0  0  0  0  0  0  0  0  0  0
    0.4671   -5.3781    1.9522 C   0  0  0  0  0  0  0  0  0  0  0  0
   -0.7183   -5.1659    2.6544 C   0  0  0  0  0  0  0  0  0  0  0  0
   -1.8593   -4.8970    2.0074 N   0  3  0  0  0  0  0  0  0  0  0  0
   -2.9921   -4.7182    2.7146 F   0  0  0  0  0  0  0  0  0  0  0  0
   -1.9296   -4.8267    0.6928 N   0  0  0  0  0  0  0  0  0  0  0  0
   -0.8268   -4.9870   -0.0437 C   0  0  0  0  0  0  0  0  0  0  0  0
    0.4206   -5.2601    0.5439 C   0  0  0  0  0  0  0  0  0  0  0  0
    1.5355   -5.3916   -0.3115 C   0  0  0  0  0  0  0  0  0  0  0  0
    1.4115   -5.2623   -1.7128 C   0  0  0  0  0  0  0  0  0  0  0  0
    0.1688   -5.0117   -2.2991 C   0  0  0  0  0  0  0  0  0  0  0  0
   -0.9183   -4.8842   -1.4344 C   0  0  0  0  0  0  0  0  0  0  0  0
   -2.1329   -4.6459   -1.9617 F   0  0  0  0  0  0  0  0  0  0  0  0
    0.0292   -4.8911   -3.6395 N   0  0  0  0  0  0  0  0  0  0  0  0
    1.1131   -4.9720   -4.4710 C   0  0  0  0  0  0  0  0  0  0  0  0
    2.3704   -5.2177   -3.9402 C   0  0  0  0  0  0  0  0  0  0  0  0
    2.5082   -5.3700   -2.5708 C   0  0  0  0  0  0  0  0  0  0  0  0
    3.7208   -5.6232   -2.0536 F   0  0  0  0  0  0  0  0  0  0  0  0
    3.4490   -5.3091   -4.7290 F   0  0  0  0  0  0  0  0  0  0  0  0
    0.9406   -4.7527   -5.9475 C   0  0  1  0  0  0  0  0  0  0  0  0
    1.1277   -3.4072   -6.4495 O   0  0  0  0  0  0  0  0  0  0  0  0
    1.3985   -5.7948   -6.8195 O   0  0  0  0  0  0  0  0  0  0  0  0
    0.0720   -5.6163   -6.7423 C   0  0  0  0  0  0  0  0  0  0  0  0
   -0.7320   -5.3992   -7.6308 O   0  0  0  0  0  0  0  0  0  0  0  0
    2.8197   -1.0940    2.9442 C   0  0  0  0  0  0  0  0  0  0  0  0
    1.6439   -0.7793    3.0479 O   0  0  0  0  0  0  0  0  0  0  0  0
    3.9121   -0.0803    2.7304 C   0  0  0  0  0  0  0  0  0  0  0  0
    3.8125    1.0309    3.2202 O   0  0  0  0  0  0  0  0  0  0  0  0
    5.1464   -0.4995    1.9587 C   0  0  0  0  0  0  0  0  0  0  0  0
    6.0620    0.2744    1.7405 O   0  0  0  0  0  0  0  0  0  0  0  0
  1  2  1  0  0  0  0
  2  3  2  0  0  0  0
  3  4  1  0  0  0  0
  3 53  1  0  0  0  0
  4  5  1  0  0  0  0
  5  6  1  6  0  0  0
  5 49  1  0  0  0  0
  6  7  1  0  0  0  0
  7  8  2  0  0  0  0
  7 12  1  0  0  0  0
  8  9  1  0  0  0  0
  8 26  1  0  0  0  0
  9 10  1  0  0  0  0
 10 11  2  0  0  0  0
 10 21  1  0  0  0  0
 11 12  1  0  0  0  0
 11 13  1  0  0  0  0
 13 14  1  0  0  0  0
 13 19  1  0  0  0  0
 14 15  1  0  0  0  0
 15 16  2  0  0  0  0
 15 17  1  0  0  0  0
 17 18  1  0  0  0  0
 18 19  1  0  0  0  0
 18 25  1  0  0  0  0
 19 20  2  0  0  0  0
 20 21  1  0  0  0  0
 20 22  1  0  0  0  0
 22 23  1  0  0  0  0
 22 24  1  0  0  0  0
 23 24  1  0  0  0  0
 26 27  2  0  0  0  0
 26 32  1  0  0  0  0
 27 28  1  0  0  0  0
 28 29  1  0  0  0  0
 28 30  2  0  0  0  0
 30 31  1  0  0  0  0
 31 32  2  0  0  0  0
 31 36  1  0  0  0  0
 32 33  1  0  0  0  0
 33 34  2  0  0  0  0
 34 35  1  0  0  0  0
 34 41  1  0  0  0  0
 35 36  2  0  0  0  0
 35 38  1  0  0  0  0
 36 37  1  0  0  0  0
 38 39  2  0  0  0  0
 39 40  1  0  0  0  0
 40 41  2  0  0  0  0
 40 43  1  0  0  0  0
 41 42  1  0  0  0  0
 44 39  1  1  0  0  0
 44 45  1  0  0  0  0
 44 46  1  0  0  0  0
 44 47  1  0  0  0  0
 46 47  1  0  0  0  0
 47 48  2  0  0  0  0
 49 50  2  0  0  0  0
 49 51  1  0  0  0  0
 51 52  2  0  0  0  0
 51 53  1  0  0  0  0
 53 54  2  0  0  0  0
M  CHG  2  21   1  28   1
M  END
$$$$