
 OpenBabel09252022493D

 47 54  0  0  1  0  0  0  0  0999 V2000
    1.8875   -2.5681    0.1836 O   0  0  0  0  0  0  0  0  0  0  0  0
    0.8483   -3.2653   -0.3715 C   0  0  0  0  0  0  0  0  0  0  0  0
    0.7137   -3.4256   -1.6943 C   0  0  0  0  0  0  0  0  0  0  0  0
    1.6486   -2.9428   -2.5918 O   0  0  0  0  0  0  0  0  0  0  0  0
    1.0669   -2.1632   -3.6346 C   0  0  2  0  0  0  0  0  0  0  0  0
    2.0893   -1.6192   -4.4993 O   0  0  0  0  0  0  0  0  0  0  0  0
    2.6891   -0.4348   -4.0764 C   0  0  0  0  0  0  0  0  0  0  0  0
    3.2385    0.4470   -4.9474 C   0  0  0  0  0  0  0  0  0  0  0  0
    3.7860    1.6706   -4.5380 O   0  0  0  0  0  0  0  0  0  0  0  0
    3.8930    1.9597   -3.1842 C   0  0  0  0  0  0  0  0  0  0  0  0
    3.4613    1.0978   -2.2526 C   0  0  0  0  0  0  0  0  0  0  0  0
    2.7674   -0.1703   -2.5870 C   0  0  0  0  0  0  0  0  0  0  0  0
    3.6963    1.4217   -0.8206 C   0  0  0  0  0  0  0  0  0  0  0  0
    3.2986    0.6185    0.1132 N   0  0  0  0  0  0  0  0  0  0  0  0
    3.5579    0.9304    1.4309 C   0  0  0  0  0  0  0  0  0  0  0  0
    3.1317    0.1601    2.3007 O   0  0  0  0  0  0  0  0  0  0  0  0
    4.2579    2.0412    1.8270 N   0  0  0  0  0  0  0  0  0  0  0  0
    4.6551    2.8768    0.9303 C   0  0  0  0  0  0  0  0  0  0  0  0
    4.4112    2.6744   -0.5113 C   0  0  0  0  0  0  0  0  0  0  0  0
    4.7641    3.5061   -1.5215 C   0  0  0  0  0  0  0  0  0  0  0  0
    4.4776    3.1504   -2.8293 N   0  0  0  0  0  0  0  0  0  0  0  0
    5.4591    4.8029   -1.3280 C   0  0  0  0  0  0  0  0  0  0  0  0
    6.8916    4.8867   -1.2929 O   0  0  0  0  0  0  0  0  0  0  0  0
    6.1649    5.4503   -2.4022 O   0  0  0  0  0  0  0  0  0  0  0  0
    3.3152    0.2683   -6.4175 C   0  0  0  0  0  0  0  0  0  0  0  0
    2.2649    0.7857   -7.0905 N   0  0  0  0  0  0  0  0  0  0  0  0
    2.3502    0.7594   -8.4246 C   0  0  0  0  0  0  0  0  0  0  0  0
    3.3940    0.3256   -9.1435 N   0  0  0  0  0  0  0  0  0  0  0  0
    4.4239   -0.1850   -8.4713 C   0  0  0  0  0  0  0  0  0  0  0  0
    4.4496   -0.2727   -7.0664 C   0  0  0  0  0  0  0  0  0  0  0  0
    5.5756   -0.8786   -6.4433 C   0  0  0  0  0  0  0  0  0  0  0  0
    6.6281   -1.3873   -7.2160 C   0  0  0  0  0  0  0  0  0  0  0  0
    6.5955   -1.2624   -8.5922 C   0  0  0  0  0  0  0  0  0  0  0  0
    5.5044   -0.6567   -9.2112 C   0  0  0  0  0  0  0  0  0  0  0  0
    7.5921   -1.7881   -9.4420 O   0  0  0  0  0  0  0  0  0  0  0  0
    8.7303   -2.4376   -9.0066 C   0  0  0  0  0  0  0  0  0  0  0  0
    9.5119   -3.0038   -9.7507 O   0  0  0  0  0  0  0  0  0  0  0  0
    8.9352   -2.3521   -7.5043 C   0  0  0  0  0  0  0  0  0  0  0  0
   10.0574   -2.4308   -7.0263 O   0  0  0  0  0  0  0  0  0  0  0  0
    7.7543   -2.0920   -6.6052 C   0  0  0  0  0  0  0  0  0  0  0  0
    7.7329   -2.4547   -5.4414 O   0  0  0  0  0  0  0  0  0  0  0  0
    0.0710   -2.9571   -4.4700 C   0  0  0  0  0  0  0  0  0  0  0  0
   -0.2148   -2.7230   -5.6370 O   0  0  0  0  0  0  0  0  0  0  0  0
   -0.6844   -4.0124   -3.6906 C   0  0  0  0  0  0  0  0  0  0  0  0
   -1.4947   -4.7292   -4.2603 O   0  0  0  0  0  0  0  0  0  0  0  0
   -0.4772   -4.1532   -2.1980 C   0  0  0  0  0  0  0  0  0  0  0  0
   -1.2559   -4.7715   -1.4908 O   0  0  0  0  0  0  0  0  0  0  0  0
  1  2  1  0  0  0  0
  2  3  2  0  0  0  0
  3  4  1  0  0  0  0
  3 46  1  0  0  0  0
  4  5  1  0  0  0  0
  5  6  1  1  0  0  0
  5 42  1  0  0  0  0
  6  7  1  0  0  0  0
  7  8  2  0  0  0  0
  7 12  1  0  0  0  0
  8  9  1  0  0  0  0
  8 25  1  0  0  0  0
  9 10  1  0  0  0  0
 10 11  2  0  0  0  0
 10 21  1  0  0  0  0
 11 12  1  0  0  0  0
 11 13  1  0  0  0  0
 13 14  2  0  0  0  0
 13 19  1  0  0  0  0
 14 15  1  0  0  0  0
 15 16  2  0  0  0  0
 15 17  1  0  0  0  0
 17 18  2  0  0  0  0
 18 19  1  0  0  0  0
 19 20  2  0  0  0  0
 20 21  1  0  0  0  0
 20 22  1  0  0  0  0
 22 23  1  0  0  0  0
 22 24  1  0  0  0  0
 23 24  1  0  0  0  0
 25 26  2  0  0  0  0
 25 30  1  0  0  0  0
 26 27  1  0  0  0  0
 27 28  2  0  0  0  0
 28 29  1  0  0  0  0
 29 30  2  0  0  0  0
 29 34  1  0  0  0  0
 30 31  1  0  0  0  0
 31 32  2  0  0  0  0
 32 33  1  0  0  0  0
 32 40  1  0  0  0  0
 33 34  2  0  0  0  0
 33 35  1  0  0  0  0
 35 36  1  0  0  0  0
 36 37  2  0  0  0  0
 36 38  1  0  0  0  0
 38 39  2  0  0  0  0
 38 40  1  0  0  0  0
 40 41  2  0  0  0  0
 42 43  2  0  0  0  0
 42 44  1  0  0  0  0
 44 45  2  0  0  0  0
 44 46  1  0  0  0  0
 46 47  2  0  0  0  0
M  END
$$$$