
 OpenBabel11272002523D

 53 61  0  0  1  0  0  0  0  0999 V2000
    0.6163    5.9013    0.4870 O   0  0  0  0  0  0  0  0  0  0  0  0
    0.6548    4.5845    0.8808 C   0  0  0  0  0  0  0  0  0  0  0  0
    0.7055    3.5564    0.0233 C   0  0  0  0  0  0  0  0  0  0  0  0
    0.6649    3.7409   -1.3447 O   0  0  0  0  0  0  0  0  0  0  0  0
    1.7186    3.0538   -2.0177 C   0  0  2  0  0  0  0  0  0  0  0  0
    1.7755    3.4005   -3.4303 O   0  0  0  0  0  0  0  0  0  0  0  0
    2.0445    4.7249   -3.7662 C   0  0  0  0  0  0  0  0  0  0  0  0
    2.5610    5.0818   -4.9708 C   0  0  0  0  0  0  0  0  0  0  0  0
    2.8105    6.4347   -5.2786 O   0  0  0  0  0  0  0  0  0  0  0  0
    2.4959    7.4557   -4.3731 C   0  0  0  0  0  0  0  0  0  0  0  0
    1.9546    7.1707   -3.1807 C   0  0  0  0  0  0  0  0  0  0  0  0
    1.6443    5.7790   -2.7660 C   0  0  0  0  0  0  0  0  0  0  0  0
    1.6247    8.2195   -2.1607 C   0  0  3  0  0  0  0  0  0  0  0  0
    2.4787    8.0174   -1.0468 O   0  0  0  0  0  0  0  0  0  0  0  0
    2.2525    8.8225    0.0337 C   0  0  0  0  0  0  0  0  0  0  0  0
    2.5580    8.4911    1.1548 O   0  0  0  0  0  0  0  0  0  0  0  0
    1.6336    9.9966   -0.2644 O   0  0  0  0  0  0  0  0  0  0  0  0
    1.6189   10.5822   -1.5832 C   0  0  0  0  0  0  0  0  0  0  0  0
    1.9190    9.5813   -2.6509 C   0  0  0  0  0  0  0  0  0  0  0  0
    2.4509    9.8217   -3.8731 C   0  0  0  0  0  0  0  0  0  0  0  0
    2.7571    8.7622   -4.7298 O   0  3  0  0  0  0  0  0  0  0  0  0
    2.7630   11.1731   -4.3759 C   0  0  3  0  0  0  0  0  0  0  0  0
    3.3120   11.2560   -5.6894 N   0  0  0  0  0  0  0  0  0  0  0  0
    4.1028   11.4423   -4.7478 N   0  0  0  0  0  0  0  0  0  0  0  0
    2.8888    4.0909   -6.0689 C   0  0  0  0  0  0  0  0  0  0  0  0
    3.2441    2.8689   -5.6394 N   0  0  0  0  0  0  0  0  0  0  0  0
    3.4225    1.9007   -6.5181 N   0  3  0  0  0  0  0  0  0  0  0  0
    3.8461    0.7004   -6.0747 F   0  0  0  0  0  0  0  0  0  0  0  0
    3.2171    2.0481   -7.8086 N   0  0  0  0  0  0  0  0  0  0  0  0
    2.8957    3.2459   -8.2857 C   0  0  0  0  0  0  0  0  0  0  0  0
    2.7836    4.3598   -7.4477 C   0  0  0  0  0  0  0  0  0  0  0  0
    2.5638    5.6200   -8.0585 C   0  0  0  0  0  0  0  0  0  0  0  0
    2.3617    5.7457   -9.4359 C   0  0  0  0  0  0  0  0  0  0  0  0
    2.1466    7.0723  -10.0180 C   0  0  0  0  0  0  0  0  0  0  0  0
    2.3962    8.0690   -9.3547 O   0  0  0  0  0  0  0  0  0  0  0  0
    1.6049    7.1142  -11.4310 C   0  0  0  0  0  0  0  0  0  0  0  0
    1.5110    8.1776  -12.0230 O   0  0  0  0  0  0  0  0  0  0  0  0
    1.1451    5.7657  -11.9496 C   0  0  1  0  0  0  0  0  0  0  0  0
    2.0177    4.6781  -11.5686 O   0  0  0  0  0  0  0  0  0  0  0  0
    2.3349    4.6283  -10.2409 C   0  0  0  0  0  0  0  0  0  0  0  0
    2.6492    3.3992   -9.6596 C   0  0  0  0  0  0  0  0  0  0  0  0
    2.6896    2.3087  -10.4418 F   0  0  0  0  0  0  0  0  0  0  0  0
   -0.2707    5.4735  -11.5213 C   0  0  1  0  0  0  0  0  0  0  0  0
   -0.5348    5.4158  -10.0993 O   0  0  0  0  0  0  0  0  0  0  0  0
   -1.2907    6.0913  -12.3036 O   0  0  0  0  0  0  0  0  0  0  0  0
   -1.2102    4.6650  -12.3907 C   0  0  3  0  0  0  0  0  0  0  0  0
   -2.2362    3.9596  -11.6694 O   0  0  0  0  0  0  0  0  0  0  0  0
    1.5074    1.5526   -1.8979 C   0  0  0  0  0  0  0  0  0  0  0  0
    1.8337    0.7437   -2.7578 O   0  0  0  0  0  0  0  0  0  0  0  0
    0.9056    1.1349   -0.5646 C   0  0  0  0  0  0  0  0  0  0  0  0
    0.5015   -0.0036   -0.4045 O   0  0  0  0  0  0  0  0  0  0  0  0
    0.7901    2.1674    0.5467 C   0  0  0  0  0  0  0  0  0  0  0  0
    0.8333    1.8763    1.7265 O   0  0  0  0  0  0  0  0  0  0  0  0
  1  2  1  0  0  0  0
  2  3  2  0  0  0  0
  3  4  1  0  0  0  0
  3 52  1  0  0  0  0
  4  5  1  0  0  0  0
  5  6  1  6  0  0  0
  5 48  1  0  0  0  0
  6  7  1  0  0  0  0
  7  8  2  0  0  0  0
  7 12  1  0  0  0  0
  8  9  1  0  0  0  0
  8 25  1  0  0  0  0
  9 10  1  0  0  0  0
 10 11  2  0  0  0  0
 10 21  1  0  0  0  0
 11 12  1  0  0  0  0
 11 13  1  0  0  0  0
 13 14  1  0  0  0  0
 13 19  1  0  0  0  0
 14 15  1  0  0  0  0
 15 16  2  0  0  0  0
 15 17  1  0  0  0  0
 17 18  1  0  0  0  0
 18 19  1  0  0  0  0
 19 20  2  0  0  0  0
 20 21  1  0  0  0  0
 20 22  1  0  0  0  0
 22 23  1  0  0  0  0
 22 24  1  0  0  0  0
 23 24  2  0  0  0  0
 25 26  2  0  0  0  0
 25 31  1  0  0  0  0
 26 27  1  0  0  0  0
 27 28  1  0  0  0  0
 27 29  2  0  0  0  0
 29 30  1  0  0  0  0
 30 31  2  0  0  0  0
 30 41  1  0  0  0  0
 31 32  1  0  0  0  0
 32 33  2  0  0  0  0
 33 34  1  0  0  0  0
 33 40  1  0  0  0  0
 34 35  2  0  0  0  0
 34 36  1  0  0  0  0
 36 37  2  0  0  0  0
 38 36  1  1  0  0  0
 38 39  1  0  0  0  0
 38 43  1  0  0  0  0
 39 40  1  0  0  0  0
 40 41  2  0  0  0  0
 41 42  1  0  0  0  0
 43 44  1  1  0  0  0
 43 45  1  0  0  0  0
 43 46  1  0  0  0  0
 45 46  1  0  0  0  0
 46 47  1  0  0  0  0
 48 49  2  0  0  0  0
 48 50  1  0  0  0  0
 50 51  2  0  0  0  0
 50 52  1  0  0  0  0
 52 53  2  0  0  0  0
M  CHG  2  21   1  27   1
M  END
$$$$