
 OpenBabel11272001023D

 54 62  0  0  1  0  0  0  0  0999 V2000
    0.2700    4.7764    3.5875 F   0  0  0  0  0  0  0  0  0  0  0  0
    0.8345    3.5538    3.6053 C   0  0  0  0  0  0  0  0  0  0  0  0
    1.3582    3.0181    2.5016 C   0  0  0  0  0  0  0  0  0  0  0  0
    1.3013    3.7033    1.3051 O   0  0  0  0  0  0  0  0  0  0  0  0
    2.3507    3.3748    0.4010 C   0  0  2  0  0  0  0  0  0  0  0  0
    2.2572    4.1823   -0.7826 O   0  0  0  0  0  0  0  0  0  0  0  0
    2.3920    5.5558   -0.5933 C   0  0  0  0  0  0  0  0  0  0  0  0
    1.8189    6.4354   -1.4400 C   0  0  0  0  0  0  0  0  0  0  0  0
    1.9387    7.8150   -1.3338 O   0  0  0  0  0  0  0  0  0  0  0  0
    2.7306    8.3406   -0.3324 C   0  0  0  0  0  0  0  0  0  0  0  0
    3.3775    7.5381    0.5753 C   0  0  0  0  0  0  0  0  0  0  0  0
    3.2359    6.0564    0.5487 C   0  0  0  0  0  0  0  0  0  0  0  0
    4.1517    8.1787    1.5323 C   0  0  0  0  0  0  0  0  0  0  0  0
    4.7868    7.3802    2.4928 O   0  0  0  0  0  0  0  0  0  0  0  0
    5.8398    7.8674    3.2655 C   0  0  0  0  0  0  0  0  0  0  0  0
    6.5198    7.1142    3.9495 O   0  0  0  0  0  0  0  0  0  0  0  0
    6.1260    9.1820    3.1216 O   0  0  0  0  0  0  0  0  0  0  0  0
    5.1092   10.0892    2.7049 C   0  0  3  0  0  0  0  0  0  0  0  0
    4.2820    9.5543    1.5883 C   0  0  0  0  0  0  0  0  0  0  0  0
    3.5702   10.3144    0.6521 C   0  0  0  0  0  0  0  0  0  0  0  0
    2.8153    9.6875   -0.3107 N   0  0  0  0  0  0  0  0  0  0  0  0
    3.5420   11.8310    0.6034 C   0  0  0  0  0  0  0  0  0  0  0  0
    4.2401   12.6233    1.5709 O   0  0  0  0  0  0  0  0  0  0  0  0
    4.7636   12.4899    0.2335 O   0  0  0  0  0  0  0  0  0  0  0  0
    4.2488   10.3770    3.7905 O   0  0  0  0  0  0  0  0  0  0  0  0
    0.9934    6.0070   -2.5823 C   0  0  0  0  0  0  0  0  0  0  0  0
    1.6874    5.8102   -3.7243 N   0  0  0  0  0  0  0  0  0  0  0  0
    1.0246    5.4181   -4.7999 N   0  3  0  0  0  0  0  0  0  0  0  0
    1.7151    5.2173   -5.9382 F   0  0  0  0  0  0  0  0  0  0  0  0
   -0.2958    5.2131   -4.8028 C   0  0  0  0  0  0  0  0  0  0  0  0
   -1.0612    5.4069   -3.6546 C   0  0  0  0  0  0  0  0  0  0  0  0
   -0.4002    5.8270   -2.4882 C   0  0  0  0  0  0  0  0  0  0  0  0
   -1.1739    6.0441   -1.3238 C   0  0  0  0  0  0  0  0  0  0  0  0
   -2.5599    5.8360   -1.3301 C   0  0  0  0  0  0  0  0  0  0  0  0
   -3.3522    6.1329   -0.1320 C   0  0  0  0  0  0  0  0  0  0  0  0
   -2.8363    6.4308    0.9317 O   0  0  0  0  0  0  0  0  0  0  0  0
   -4.8479    6.0496   -0.2998 C   0  0  0  0  0  0  0  0  0  0  0  0
   -5.5956    6.7842    0.3249 O   0  0  0  0  0  0  0  0  0  0  0  0
   -5.2765    5.0156   -1.3071 C   0  0  1  0  0  0  0  0  0  0  0  0
   -4.5475    5.1031   -2.5458 O   0  0  0  0  0  0  0  0  0  0  0  0
   -3.2048    5.3732   -2.4705 C   0  0  0  0  0  0  0  0  0  0  0  0
   -2.4547    5.1492   -3.6396 C   0  0  0  0  0  0  0  0  0  0  0  0
   -3.1240    4.8481   -4.8584 N   0  0  0  0  0  0  0  0  0  0  0  0
   -5.2061    3.6256   -0.7372 C   0  0  1  0  0  0  0  0  0  0  0  0
   -3.9162    3.1646   -0.2803 O   0  0  0  0  0  0  0  0  0  0  0  0
   -6.2969    3.2458    0.1091 O   0  0  0  0  0  0  0  0  0  0  0  0
   -6.2027    2.6204   -1.0754 C   0  0  0  0  0  0  0  0  0  0  0  0
   -6.9815    2.5254   -1.9977 O   0  0  0  0  0  0  0  0  0  0  0  0
    2.2228    1.8899    0.0796 C   0  0  0  0  0  0  0  0  0  0  0  0
    2.0934    1.4645   -1.0690 O   0  0  0  0  0  0  0  0  0  0  0  0
    2.3741    0.9921    1.2884 C   0  0  3  0  0  0  0  0  0  0  0  0
    1.9643    1.6535    2.5889 C   0  0  0  0  0  0  0  0  0  0  0  0
    2.1256    1.1086    3.6790 O   0  0  0  0  0  0  0  0  0  0  0  0
    1.7167   -0.1920    1.1150 F   0  0  0  0  0  0  0  0  0  0  0  0
  1  2  1  0  0  0  0
  2  3  2  0  0  0  0
  3  4  1  0  0  0  0
  3 52  1  0  0  0  0
  4  5  1  0  0  0  0
  5  6  1  6  0  0  0
  5 49  1  0  0  0  0
  6  7  1  0  0  0  0
  7  8  2  0  0  0  0
  7 12  1  0  0  0  0
  8  9  1  0  0  0  0
  8 26  1  0  0  0  0
  9 10  1  0  0  0  0
 10 11  2  0  0  0  0
 10 21  1  0  0  0  0
 11 12  1  0  0  0  0
 11 13  1  0  0  0  0
 13 14  1  0  0  0  0
 13 19  2  0  0  0  0
 14 15  1  0  0  0  0
 15 16  2  0  0  0  0
 15 17  1  0  0  0  0
 17 18  1  0  0  0  0
 18 19  1  0  0  0  0
 18 25  1  0  0  0  0
 19 20  1  0  0  0  0
 20 21  2  0  0  0  0
 20 22  1  0  0  0  0
 22 23  1  0  0  0  0
 22 24  1  0  0  0  0
 23 24  1  0  0  0  0
 26 27  2  0  0  0  0
 26 32  1  0  0  0  0
 27 28  1  0  0  0  0
 28 29  1  0  0  0  0
 28 30  2  0  0  0  0
 30 31  1  0  0  0  0
 31 32  2  0  0  0  0
 31 42  1  0  0  0  0
 32 33  1  0  0  0  0
 33 34  2  0  0  0  0
 34 35  1  0  0  0  0
 34 41  1  0  0  0  0
 35 36  2  0  0  0  0
 35 37  1  0  0  0  0
 37 38  2  0  0  0  0
 39 37  1  1  0  0  0
 39 40  1  0  0  0  0
 39 44  1  0  0  0  0
 40 41  1  0  0  0  0
 41 42  2  0  0  0  0
 42 43  1  0  0  0  0
 44 45  1  1  0  0  0
 44 46  1  0  0  0  0
 44 47  1  0  0  0  0
 46 47  1  0  0  0  0
 47 48  2  0  0  0  0
 49 50  2  0  0  0  0
 49 51  1  0  0  0  0
 51 52  1  0  0  0  0
 51 54  1  0  0  0  0
 52 53  2  0  0  0  0
M  CHG  1  28   1
M  END
$$$$