
 OpenBabel09252006533D

 57 67  0  0  1  0  0  0  0  0999 V2000
    3.9066    5.6133    3.5051 O   0  0  0  0  0  0  0  0  0  0  0  0
    4.8129    4.7041    3.0226 C   0  0  0  0  0  0  0  0  0  0  0  0
    4.8630    4.3851    1.7242 C   0  0  0  0  0  0  0  0  0  0  0  0
    3.9731    4.9583    0.8318 O   0  0  0  0  0  0  0  0  0  0  0  0
    4.2285    4.7543   -0.5586 C   0  0  2  0  0  0  0  0  0  0  0  0
    3.1834    5.3593   -1.3453 O   0  0  0  0  0  0  0  0  0  0  0  0
    3.0902    6.7538   -1.3378 C   0  0  0  0  0  0  0  0  0  0  0  0
    1.9159    7.3973   -1.5591 C   0  0  0  0  0  0  0  0  0  0  0  0
    1.8049    8.7935   -1.5854 O   0  0  0  0  0  0  0  0  0  0  0  0
    2.9359    9.5764   -1.3647 C   0  0  0  0  0  0  0  0  0  0  0  0
    4.1412    9.0227   -1.1688 C   0  0  0  0  0  0  0  0  0  0  0  0
    4.3556    7.5541   -1.1304 C   0  0  0  0  0  0  0  0  0  0  0  0
    5.3066    9.9125   -0.8981 C   0  0  0  0  0  0  0  0  0  0  0  0
    6.4834    9.4169   -0.6935 N   0  0  0  0  0  0  0  0  0  0  0  0
    7.5345   10.2681   -0.4109 C   0  0  0  0  0  0  0  0  0  0  0  0
    8.6329    9.7718   -0.1932 O   0  0  0  0  0  0  0  0  0  0  0  0
    7.4071   11.6419   -0.3487 N   0  0  0  0  0  0  0  0  0  0  0  0
    6.2476   12.1635   -0.5595 C   0  0  0  0  0  0  0  0  0  0  0  0
    5.0546   11.3672   -0.8549 C   0  0  0  0  0  0  0  0  0  0  0  0
    3.8092   11.8345   -1.0743 C   0  0  0  0  0  0  0  0  0  0  0  0
    2.7725   10.9406   -1.3194 N   0  0  0  0  0  0  0  0  0  0  0  0
    3.4444   13.2673   -1.0774 C   0  0  0  0  0  0  0  0  0  0  0  0
    4.0277   14.1956   -2.0054 O   0  0  0  0  0  0  0  0  0  0  0  0
    2.6389   13.8335   -2.1242 O   0  0  0  0  0  0  0  0  0  0  0  0
    0.6319    6.6901   -1.8047 C   0  0  0  0  0  0  0  0  0  0  0  0
    0.3633    6.4872   -3.1093 N   0  0  0  0  0  0  0  0  0  0  0  0
   -0.7132    5.7471   -3.3653 C   0  0  0  0  0  0  0  0  0  0  0  0
   -1.5351    5.2107   -2.4531 N   0  0  0  0  0  0  0  0  0  0  0  0
   -1.2813    5.3904   -1.1462 C   0  0  0  0  0  0  0  0  0  0  0  0
   -0.1863    6.1950   -0.7649 C   0  0  0  0  0  0  0  0  0  0  0  0
    0.0532    6.4388    0.6001 C   0  0  0  0  0  0  0  0  0  0  0  0
   -0.6822    5.7740    1.5793 C   0  0  0  0  0  0  0  0  0  0  0  0
   -0.3322    5.9742    2.9908 C   0  0  0  0  0  0  0  0  0  0  0  0
    0.3991    6.8852    3.3477 O   0  0  0  0  0  0  0  0  0  0  0  0
   -0.8910    4.9949    3.9921 C   0  0  0  0  0  0  0  0  0  0  0  0
   -0.5713    5.0512    5.1723 O   0  0  0  0  0  0  0  0  0  0  0  0
   -1.7761    3.9235    3.4091 C   0  0  1  0  0  0  0  0  0  0  0  0
   -2.4550    4.2665    2.1955 O   0  0  0  0  0  0  0  0  0  0  0  0
   -1.7212    4.9166    1.2305 C   0  0  0  0  0  0  0  0  0  0  0  0
   -2.0780    4.7444   -0.1395 C   0  0  0  0  0  0  0  0  0  0  0  0
   -3.2312    3.9704   -0.4988 N   0  0  0  0  0  0  0  0  0  0  0  0
   -3.5411    2.7431    0.2591 C   0  0  0  0  0  0  0  0  0  0  0  0
   -3.8858    1.8563   -0.9379 C   0  0  3  0  0  0  0  0  0  0  0  0
   -4.7902    2.6537   -1.7624 O   0  0  0  0  0  0  0  0  0  0  0  0
   -3.5612    3.4759   -1.8235 C   0  0  2  0  0  0  0  0  0  0  0  0
   -2.9149    2.1675   -2.0032 O   0  0  0  0  0  0  0  0  0  0  0  0
   -1.0379    2.6225    3.2715 C   0  0  1  0  0  0  0  0  0  0  0  0
    0.1446    2.6388    2.4284 O   0  0  0  0  0  0  0  0  0  0  0  0
   -0.9295    1.8580    4.4727 O   0  0  0  0  0  0  0  0  0  0  0  0
   -1.6523    1.3141    3.4693 C   0  0  0  0  0  0  0  0  0  0  0  0
   -1.5034    0.2844    2.8635 O   0  0  0  0  0  0  0  0  0  0  0  0
    4.3406    3.2568   -0.8407 C   0  0  0  0  0  0  0  0  0  0  0  0
    3.7457    2.6258   -1.7004 O   0  0  0  0  0  0  0  0  0  0  0  0
    5.3342    2.5750    0.0757 C   0  0  0  0  0  0  0  0  0  0  0  0
    5.7193    1.4376   -0.1428 O   0  0  0  0  0  0  0  0  0  0  0  0
    5.8097    3.3203    1.3038 C   0  0  0  0  0  0  0  0  0  0  0  0
    6.8575    3.0561    1.8661 O   0  0  0  0  0  0  0  0  0  0  0  0
  1  2  1  0  0  0  0
  2  3  2  0  0  0  0
  3  4  1  0  0  0  0
  3 56  1  0  0  0  0
  4  5  1  0  0  0  0
  5  6  1  6  0  0  0
  5 52  1  0  0  0  0
  6  7  1  0  0  0  0
  7  8  2  0  0  0  0
  7 12  1  0  0  0  0
  8  9  1  0  0  0  0
  8 25  1  0  0  0  0
  9 10  1  0  0  0  0
 10 11  2  0  0  0  0
 10 21  1  0  0  0  0
 11 12  1  0  0  0  0
 11 13  1  0  0  0  0
 13 14  2  0  0  0  0
 13 19  1  0  0  0  0
 14 15  1  0  0  0  0
 15 16  2  0  0  0  0
 15 17  1  0  0  0  0
 17 18  2  0  0  0  0
 18 19  1  0  0  0  0
 19 20  2  0  0  0  0
 20 21  1  0  0  0  0
 20 22  1  0  0  0  0
 22 23  1  0  0  0  0
 22 24  1  0  0  0  0
 23 24  1  0  0  0  0
 25 26  2  0  0  0  0
 25 30  1  0  0  0  0
 26 27  1  0  0  0  0
 27 28  2  0  0  0  0
 28 29  1  0  0  0  0
 29 30  2  0  0  0  0
 29 40  1  0  0  0  0
 30 31  1  0  0  0  0
 31 32  2  0  0  0  0
 32 33  1  0  0  0  0
 32 39  1  0  0  0  0
 33 34  2  0  0  0  0
 33 35  1  0  0  0  0
 35 36  2  0  0  0  0
 37 35  1  6  0  0  0
 37 38  1  0  0  0  0
 37 47  1  0  0  0  0
 38 39  1  0  0  0  0
 39 40  2  0  0  0  0
 40 41  1  0  0  0  0
 41 42  1  0  0  0  0
 41 45  1  0  0  0  0
 42 43  1  0  0  0  0
 43 44  1  0  0  0  0
 43 46  1  0  0  0  0
 45 44  1  1  0  0  0
 45 46  1  0  0  0  0
 47 48  1  6  0  0  0
 47 49  1  0  0  0  0
 47 50  1  0  0  0  0
 49 50  1  0  0  0  0
 50 51  2  0  0  0  0
 52 53  2  0  0  0  0
 52 54  1  0  0  0  0
 54 55  2  0  0  0  0
 54 56  1  0  0  0  0
 56 57  2  0  0  0  0
M  END
$$$$