
 OpenBabel11212020503D

 54 62  0  0  1  0  0  0  0  0999 V2000
    7.2352   -1.4530    4.8242 O   0  0  0  0  0  0  0  0  0  0  0  0
    6.9298   -0.1920    4.3730 C   0  0  0  0  0  0  0  0  0  0  0  0
    5.6974    0.1561    3.9854 C   0  0  0  0  0  0  0  0  0  0  0  0
    4.6845   -0.7871    3.9829 O   0  0  0  0  0  0  0  0  0  0  0  0
    3.3898   -0.2797    4.2631 C   0  0  2  0  0  0  0  0  0  0  0  0
    2.4205   -1.3437    4.2156 O   0  0  0  0  0  0  0  0  0  0  0  0
    2.5804   -2.3885    5.1167 C   0  0  0  0  0  0  0  0  0  0  0  0
    2.1643   -3.6462    4.8280 C   0  0  0  0  0  0  0  0  0  0  0  0
    2.3429   -4.7006    5.7412 O   0  0  0  0  0  0  0  0  0  0  0  0
    2.9004   -4.4587    7.0051 C   0  0  0  0  0  0  0  0  0  0  0  0
    3.2250   -3.2123    7.3907 C   0  0  0  0  0  0  0  0  0  0  0  0
    3.1396   -2.0440    6.4698 C   0  0  0  0  0  0  0  0  0  0  0  0
    3.7215   -2.8938    8.7711 C   0  0  3  0  0  0  0  0  0  0  0  0
    2.7072   -2.1359    9.4073 O   0  0  0  0  0  0  0  0  0  0  0  0
    2.8671   -1.8184   10.7209 C   0  0  0  0  0  0  0  0  0  0  0  0
    2.1718   -0.9691   11.2530 O   0  0  0  0  0  0  0  0  0  0  0  0
    3.8221   -2.5058   11.3918 O   0  0  0  0  0  0  0  0  0  0  0  0
    4.4074   -3.7173   10.9260 C   0  0  3  0  0  0  0  0  0  0  0  0
    3.9073   -4.1110    9.5831 C   0  0  0  0  0  0  0  0  0  0  0  0
    3.6264   -5.3515    9.1260 C   0  0  0  0  0  0  0  0  0  0  0  0
    3.0951   -5.5316    7.8519 O   0  3  0  0  0  0  0  0  0  0  0  0
    3.8238   -6.5775    9.9309 C   0  0  0  0  0  0  0  0  0  0  0  0
    2.7681   -7.0976   10.7469 O   0  0  0  0  0  0  0  0  0  0  0  0
    3.1761   -7.8052    9.5595 O   0  0  0  0  0  0  0  0  0  0  0  0
    5.7972   -3.5202   10.7606 O   0  0  0  0  0  0  0  0  0  0  0  0
    1.4461   -3.9923    3.5464 C   0  0  0  0  0  0  0  0  0  0  0  0
    0.5987   -3.0234    2.9994 C   0  0  0  0  0  0  0  0  0  0  0  0
   -0.0393   -3.2179    1.8472 N   0  3  0  0  0  0  0  0  0  0  0  0
   -0.8090   -2.2303    1.3508 F   0  0  0  0  0  0  0  0  0  0  0  0
    0.0472   -4.3413    1.1777 N   0  0  0  0  0  0  0  0  0  0  0  0
    0.7906   -5.3517    1.6360 C   0  0  0  0  0  0  0  0  0  0  0  0
    1.5213   -5.2292    2.8445 C   0  0  0  0  0  0  0  0  0  0  0  0
    2.2753   -6.3529    3.2595 C   0  0  0  0  0  0  0  0  0  0  0  0
    2.2974   -7.5509    2.5247 C   0  0  0  0  0  0  0  0  0  0  0  0
    3.0459   -8.6990    3.0390 C   0  0  0  0  0  0  0  0  0  0  0  0
    3.4881   -8.6704    4.1796 O   0  0  0  0  0  0  0  0  0  0  0  0
    3.2064   -9.8956    2.1271 C   0  0  0  0  0  0  0  0  0  0  0  0
    3.7017  -10.9248    2.5609 O   0  0  0  0  0  0  0  0  0  0  0  0
    2.7473   -9.6834    0.7001 C   0  0  1  0  0  0  0  0  0  0  0  0
    1.6253   -8.7934    0.5690 O   0  0  0  0  0  0  0  0  0  0  0  0
    1.6045   -7.6646    1.3365 C   0  0  0  0  0  0  0  0  0  0  0  0
    0.8508   -6.5606    0.9100 C   0  0  0  0  0  0  0  0  0  0  0  0
   -0.2170   -6.7066   -0.9364 I   0  0  0  0  0  0  0  0  0  0  0  0
    3.8921   -9.3318   -0.2211 C   0  0  1  0  0  0  0  0  0  0  0  0
    4.9333  -10.3163   -0.3497 O   0  0  0  0  0  0  0  0  0  0  0  0
    3.5418   -8.6642   -1.4394 O   0  0  0  0  0  0  0  0  0  0  0  0
    4.2638   -7.9652   -0.5517 C   0  0  0  0  0  0  0  0  0  0  0  0
    4.0441   -6.9116    0.0185 O   0  0  0  0  0  0  0  0  0  0  0  0
    3.0170    0.7682    3.2399 C   0  0  0  0  0  0  0  0  0  0  0  0
    2.0428    0.7334    2.5040 O   0  0  0  0  0  0  0  0  0  0  0  0
    4.0122    1.8967    3.2526 C   0  0  0  0  0  0  0  0  0  0  0  0
    3.6165    3.0465    3.1842 O   0  0  0  0  0  0  0  0  0  0  0  0
    5.4686    1.5617    3.5254 C   0  0  0  0  0  0  0  0  0  0  0  0
    6.3537    2.3893    3.4058 O   0  0  0  0  0  0  0  0  0  0  0  0
  1  2  1  0  0  0  0
  2  3  2  0  0  0  0
  3  4  1  0  0  0  0
  3 53  1  0  0  0  0
  4  5  1  0  0  0  0
  5  6  1  6  0  0  0
  5 49  1  0  0  0  0
  6  7  1  0  0  0  0
  7  8  2  0  0  0  0
  7 12  1  0  0  0  0
  8  9  1  0  0  0  0
  8 26  1  0  0  0  0
  9 10  1  0  0  0  0
 10 11  2  0  0  0  0
 10 21  1  0  0  0  0
 11 12  1  0  0  0  0
 11 13  1  0  0  0  0
 13 14  1  0  0  0  0
 13 19  1  0  0  0  0
 14 15  1  0  0  0  0
 15 16  2  0  0  0  0
 15 17  1  0  0  0  0
 17 18  1  0  0  0  0
 18 19  1  0  0  0  0
 18 25  1  0  0  0  0
 19 20  2  0  0  0  0
 20 21  1  0  0  0  0
 20 22  1  0  0  0  0
 22 23  1  0  0  0  0
 22 24  1  0  0  0  0
 23 24  1  0  0  0  0
 26 27  2  0  0  0  0
 26 32  1  0  0  0  0
 27 28  1  0  0  0  0
 28 29  1  0  0  0  0
 28 30  2  0  0  0  0
 30 31  1  0  0  0  0
 31 32  2  0  0  0  0
 31 42  1  0  0  0  0
 32 33  1  0  0  0  0
 33 34  2  0  0  0  0
 34 35  1  0  0  0  0
 34 41  1  0  0  0  0
 35 36  2  0  0  0  0
 35 37  1  0  0  0  0
 37 38  2  0  0  0  0
 39 37  1  1  0  0  0
 39 40  1  0  0  0  0
 39 44  1  0  0  0  0
 40 41  1  0  0  0  0
 41 42  2  0  0  0  0
 42 43  1  0  0  0  0
 44 45  1  6  0  0  0
 44 46  1  0  0  0  0
 44 47  1  0  0  0  0
 46 47  1  0  0  0  0
 47 48  2  0  0  0  0
 49 50  2  0  0  0  0
 49 51  1  0  0  0  0
 51 52  2  0  0  0  0
 51 53  1  0  0  0  0
 53 54  2  0  0  0  0
M  CHG  2  21   1  28   1
M  END
$$$$