
 OpenBabel09232009103D

 51 59  0  0  1  0  0  0  0  0999 V2000
    0.3106   -7.1636   -0.7536 O   0  0  0  0  0  0  0  0  0  0  0  0
    1.6501   -7.2074   -0.4669 C   0  0  0  0  0  0  0  0  0  0  0  0
    2.5478   -6.4209   -1.0740 C   0  0  0  0  0  0  0  0  0  0  0  0
    2.1477   -5.5319   -2.0531 O   0  0  0  0  0  0  0  0  0  0  0  0
    2.9653   -4.3806   -2.2669 C   0  0  2  0  0  0  0  0  0  0  0  0
    2.4126   -3.5176   -3.2808 O   0  0  0  0  0  0  0  0  0  0  0  0
    2.3610   -3.9650   -4.5950 C   0  0  0  0  0  0  0  0  0  0  0  0
    2.5121   -3.1235   -5.6410 C   0  0  0  0  0  0  0  0  0  0  0  0
    2.5190   -3.5462   -6.9703 O   0  0  0  0  0  0  0  0  0  0  0  0
    2.5048   -4.9012   -7.2453 C   0  0  0  0  0  0  0  0  0  0  0  0
    2.2444   -5.8405   -6.2701 C   0  0  0  0  0  0  0  0  0  0  0  0
    2.0494   -5.4113   -4.8547 C   0  0  0  0  0  0  0  0  0  0  0  0
    2.2047   -7.1829   -6.6578 C   0  0  0  0  0  0  0  0  0  0  0  0
    1.8924   -8.1804   -5.7225 N   0  0  0  0  0  0  0  0  0  0  0  0
    1.8847   -9.5125   -5.9771 C   0  0  0  0  0  0  0  0  0  0  0  0
    1.6138  -10.3270   -5.1011 O   0  0  0  0  0  0  0  0  0  0  0  0
    2.2041   -9.9010   -7.2291 N   0  0  0  0  0  0  0  0  0  0  0  0
    2.4248   -9.0108   -8.3405 C   0  0  0  0  0  0  0  0  0  0  0  0
    2.4780   -7.5564   -7.9759 C   0  0  0  0  0  0  0  0  0  0  0  0
    2.7625   -6.5462   -8.9108 C   0  0  0  0  0  0  0  0  0  0  0  0
    2.7472   -5.2304   -8.5326 N   0  0  0  0  0  0  0  0  0  0  0  0
    3.0981   -6.7888  -10.3725 C   0  0  0  0  0  0  0  0  0  0  0  0
    4.2322   -7.6199  -10.6663 O   0  0  0  0  0  0  0  0  0  0  0  0
    2.8973   -8.0750  -10.9729 O   0  0  0  0  0  0  0  0  0  0  0  0
    2.6856   -1.6587   -5.4921 C   0  0  0  0  0  0  0  0  0  0  0  0
    3.9711   -1.2583   -5.3922 N   0  0  0  0  0  0  0  0  0  0  0  0
    4.1753    0.0586   -5.2965 C   0  0  0  0  0  0  0  0  0  0  0  0
    3.2299    1.0071   -5.2916 N   0  0  0  0  0  0  0  0  0  0  0  0
    1.9648    0.6024   -5.4063 C   0  0  0  0  0  0  0  0  0  0  0  0
    1.6029   -0.7525   -5.5092 C   0  0  0  0  0  0  0  0  0  0  0  0
    0.2275   -1.0827   -5.6350 C   0  0  0  0  0  0  0  0  0  0  0  0
   -0.7427   -0.0743   -5.7004 C   0  0  0  0  0  0  0  0  0  0  0  0
   -0.3670    1.2601   -5.6444 C   0  0  0  0  0  0  0  0  0  0  0  0
    0.9764    1.5804   -5.4558 C   0  0  0  0  0  0  0  0  0  0  0  0
   -1.2268    2.3140   -5.7882 O   0  0  0  0  0  0  0  0  0  0  0  0
   -2.4561    2.0307   -6.4786 C   0  0  2  0  0  0  0  0  0  0  0  0
   -3.1190    0.7542   -6.0249 C   0  0  0  0  0  0  0  0  0  0  0  0
   -4.3208    0.6208   -5.8407 O   0  0  0  0  0  0  0  0  0  0  0  0
   -2.1661   -0.4070   -5.8443 C   0  0  0  0  0  0  0  0  0  0  0  0
   -2.5664   -1.5597   -5.8103 O   0  0  0  0  0  0  0  0  0  0  0  0
   -2.2573    2.0588   -7.9815 C   0  0  3  0  0  0  0  0  0  0  0  0
   -1.2598    1.1717   -8.6310 N   0  0  0  0  0  0  0  0  0  0  0  0
   -3.4743    2.1489   -8.7515 O   0  0  0  0  0  0  0  0  0  0  0  0
   -2.6967    3.2334   -8.7255 C   0  0  0  0  0  0  0  0  0  0  0  0
   -2.9125    4.3884   -8.4402 O   0  0  0  0  0  0  0  0  0  0  0  0
    4.4442   -4.7324   -2.4390 C   0  0  0  0  0  0  0  0  0  0  0  0
    5.1954   -4.3423   -3.3187 O   0  0  0  0  0  0  0  0  0  0  0  0
    4.9412   -5.6561   -1.3609 C   0  0  0  0  0  0  0  0  0  0  0  0
    6.1136   -5.6224   -1.0196 O   0  0  0  0  0  0  0  0  0  0  0  0
    3.9723   -6.5862   -0.6708 C   0  0  0  0  0  0  0  0  0  0  0  0
    4.3538   -7.3955    0.1604 O   0  0  0  0  0  0  0  0  0  0  0  0
  1  2  1  0  0  0  0
  2  3  2  0  0  0  0
  3  4  1  0  0  0  0
  3 50  1  0  0  0  0
  4  5  1  0  0  0  0
  5  6  1  6  0  0  0
  5 46  1  0  0  0  0
  6  7  1  0  0  0  0
  7  8  2  0  0  0  0
  7 12  1  0  0  0  0
  8  9  1  0  0  0  0
  8 25  1  0  0  0  0
  9 10  1  0  0  0  0
 10 11  2  0  0  0  0
 10 21  1  0  0  0  0
 11 12  1  0  0  0  0
 11 13  1  0  0  0  0
 13 14  1  0  0  0  0
 13 19  2  0  0  0  0
 14 15  1  0  0  0  0
 15 16  2  0  0  0  0
 15 17  1  0  0  0  0
 17 18  1  0  0  0  0
 18 19  1  0  0  0  0
 19 20  1  0  0  0  0
 20 21  2  0  0  0  0
 20 22  1  0  0  0  0
 22 23  1  0  0  0  0
 22 24  1  0  0  0  0
 23 24  1  0  0  0  0
 25 26  2  0  0  0  0
 25 30  1  0  0  0  0
 26 27  1  0  0  0  0
 27 28  2  0  0  0  0
 28 29  1  0  0  0  0
 29 30  2  0  0  0  0
 29 34  1  0  0  0  0
 30 31  1  0  0  0  0
 31 32  2  0  0  0  0
 32 33  1  0  0  0  0
 32 39  1  0  0  0  0
 33 34  2  0  0  0  0
 33 35  1  0  0  0  0
 36 35  1  1  0  0  0
 36 37  1  0  0  0  0
 36 41  1  0  0  0  0
 37 38  2  0  0  0  0
 37 39  1  0  0  0  0
 39 40  2  0  0  0  0
 41 42  1  0  0  0  0
 41 43  1  0  0  0  0
 41 44  1  0  0  0  0
 43 44  1  0  0  0  0
 44 45  2  0  0  0  0
 46 47  2  0  0  0  0
 46 48  1  0  0  0  0
 48 49  2  0  0  0  0
 48 50  1  0  0  0  0
 50 51  2  0  0  0  0
M  END
$$$$