
 OpenBabel11242000073D

 53 62  0  0  1  0  0  0  0  0999 V2000
    6.6079   -8.4014  -19.4236 O   0  0  0  0  0  0  0  0  0  0  0  0
    5.3543   -7.9808  -19.7871 C   0  0  0  0  0  0  0  0  0  0  0  0
    4.4484   -7.5773  -18.8902 C   0  0  0  0  0  0  0  0  0  0  0  0
    4.7353   -7.5929  -17.5350 O   0  0  0  0  0  0  0  0  0  0  0  0
    4.2813   -6.4157  -16.8873 C   0  0  2  0  0  0  0  0  0  0  0  0
    4.7254   -6.3712  -15.5240 O   0  0  0  0  0  0  0  0  0  0  0  0
    5.9851   -5.8344  -15.3002 C   0  0  0  0  0  0  0  0  0  0  0  0
    6.2482   -5.1916  -14.1446 C   0  0  0  0  0  0  0  0  0  0  0  0
    7.4661   -4.5908  -13.8631 O   0  0  0  0  0  0  0  0  0  0  0  0
    8.4484   -4.5746  -14.8418 C   0  0  0  0  0  0  0  0  0  0  0  0
    8.3004   -5.2117  -16.0166 C   0  0  0  0  0  0  0  0  0  0  0  0
    7.0694   -5.9996  -16.3453 C   0  0  0  0  0  0  0  0  0  0  0  0
    9.4002   -5.1747  -17.0483 C   0  0  3  0  0  0  0  0  0  0  0  0
    8.8768   -4.5361  -18.2514 N   0  0  0  0  0  0  0  0  0  0  0  0
    9.7410   -4.3914  -19.2868 C   0  0  0  0  0  0  0  0  0  0  0  0
    9.3884   -4.5611  -20.5078 N   0  0  0  0  0  0  0  0  0  0  0  0
   10.9827   -3.9783  -18.9554 N   0  0  0  0  0  0  0  0  0  0  0  0
   11.6415   -4.3488  -17.7226 C   0  0  0  0  0  0  0  0  0  0  0  0
   10.6110   -4.3794  -16.6376 C   0  0  0  0  0  0  0  0  0  0  0  0
   10.6763   -3.7598  -15.4371 C   0  0  0  0  0  0  0  0  0  0  0  0
    9.5880   -3.8622  -14.5750 N   0  0  0  0  0  0  0  0  0  0  0  0
   11.8215   -2.9575  -14.9741 C   0  0  3  0  0  0  0  0  0  0  0  0
   12.8775   -3.6155  -14.2917 N   0  0  0  0  0  0  0  0  0  0  0  0
   12.1214   -2.9272  -13.5823 N   0  0  0  0  0  0  0  0  0  0  0  0
    5.2434   -5.0133  -13.0855 C   0  0  0  0  0  0  0  0  0  0  0  0
    4.4409   -3.8840  -13.1493 C   0  0  0  0  0  0  0  0  0  0  0  0
    3.5156   -3.6562  -12.2159 N   0  3  0  0  0  0  0  0  0  0  0  0
    2.7538   -2.5500  -12.3084 F   0  0  0  0  0  0  0  0  0  0  0  0
    3.3259   -4.4629  -11.1894 N   0  0  0  0  0  0  0  0  0  0  0  0
    4.0507   -5.5840  -11.0781 C   0  0  0  0  0  0  0  0  0  0  0  0
    5.0402   -5.9179  -12.0262 C   0  0  0  0  0  0  0  0  0  0  0  0
    5.7561   -7.1297  -11.8778 C   0  0  0  0  0  0  0  0  0  0  0  0
    5.4683   -8.0094  -10.8296 C   0  0  0  0  0  0  0  0  0  0  0  0
    4.4871   -7.6819   -9.9049 C   0  0  0  0  0  0  0  0  0  0  0  0
    3.8176   -6.4455   -9.9862 C   0  0  0  0  0  0  0  0  0  0  0  0
    2.7458   -6.1948   -9.0963 N   0  0  0  0  0  0  0  0  0  0  0  0
    4.1514   -8.5165   -8.8613 O   0  0  0  0  0  0  0  0  0  0  0  0
    4.4056   -9.9161   -9.1250 C   0  0  1  0  0  0  0  0  0  0  0  0
    5.7568  -10.2363   -9.6054 C   0  0  0  0  0  0  0  0  0  0  0  0
    6.4337  -11.1724   -9.2227 O   0  0  0  0  0  0  0  0  0  0  0  0
    6.1837   -9.2924  -10.7127 C   0  0  0  0  0  0  0  0  0  0  0  0
    7.0586   -9.5960  -11.5070 O   0  0  0  0  0  0  0  0  0  0  0  0
    3.8160  -10.8295   -8.2351 O   0  0  0  0  0  0  0  0  0  0  0  0
    3.2905  -10.7996   -9.5983 C   0  0  1  0  0  0  0  0  0  0  0  0
    2.1474   -9.9130   -9.8876 O   0  0  0  0  0  0  0  0  0  0  0  0
    1.8949  -11.1427   -9.4986 C   0  0  0  0  0  0  0  0  0  0  0  0
    1.2177  -12.0132   -9.9944 O   0  0  0  0  0  0  0  0  0  0  0  0
    2.7672   -6.3440  -16.8900 C   0  0  0  0  0  0  0  0  0  0  0  0
    2.0855   -5.9175  -15.9659 O   0  0  0  0  0  0  0  0  0  0  0  0
    2.1790   -6.7130  -18.2354 C   0  0  0  0  0  0  0  0  0  0  0  0
    0.9731   -6.6714  -18.4110 O   0  0  0  0  0  0  0  0  0  0  0  0
    3.1251   -7.0826  -19.3657 C   0  0  0  0  0  0  0  0  0  0  0  0
    2.8407   -6.8930  -20.5351 O   0  0  0  0  0  0  0  0  0  0  0  0
  1  2  1  0  0  0  0
  2  3  2  0  0  0  0
  3  4  1  0  0  0  0
  3 52  1  0  0  0  0
  4  5  1  0  0  0  0
  5  6  1  1  0  0  0
  5 48  1  0  0  0  0
  6  7  1  0  0  0  0
  7  8  2  0  0  0  0
  7 12  1  0  0  0  0
  8  9  1  0  0  0  0
  8 25  1  0  0  0  0
  9 10  1  0  0  0  0
 10 11  2  0  0  0  0
 10 21  1  0  0  0  0
 11 12  1  0  0  0  0
 11 13  1  0  0  0  0
 13 14  1  0  0  0  0
 13 19  1  0  0  0  0
 14 15  1  0  0  0  0
 15 16  2  0  0  0  0
 15 17  1  0  0  0  0
 17 18  1  0  0  0  0
 18 19  1  0  0  0  0
 19 20  2  0  0  0  0
 20 21  1  0  0  0  0
 20 22  1  0  0  0  0
 22 23  1  0  0  0  0
 22 24  1  0  0  0  0
 23 24  2  0  0  0  0
 25 26  2  0  0  0  0
 25 31  1  0  0  0  0
 26 27  1  0  0  0  0
 27 28  1  0  0  0  0
 27 29  2  0  0  0  0
 29 30  1  0  0  0  0
 30 31  2  0  0  0  0
 30 35  1  0  0  0  0
 31 32  1  0  0  0  0
 32 33  2  0  0  0  0
 33 34  1  0  0  0  0
 33 41  1  0  0  0  0
 34 35  2  0  0  0  0
 34 37  1  0  0  0  0
 35 36  1  0  0  0  0
 38 37  1  1  0  0  0
 38 39  1  0  0  0  0
 38 43  1  0  0  0  0
 38 44  1  0  0  0  0
 39 40  2  0  0  0  0
 39 41  1  0  0  0  0
 41 42  2  0  0  0  0
 44 43  1  1  0  0  0
 44 45  1  0  0  0  0
 44 46  1  0  0  0  0
 45 46  1  0  0  0  0
 46 47  2  0  0  0  0
 48 49  2  0  0  0  0
 48 50  1  0  0  0  0
 50 51  2  0  0  0  0
 50 52  1  0  0  0  0
 52 53  2  0  0  0  0
M  CHG  1  27   1
M  END
$$$$