
 OpenBabel10192020573D

 51 59  0  0  1  0  0  0  0  0999 V2000
   -8.2012   -1.7816  -17.8163 O   0  0  0  0  0  0  0  0  0  0  0  0
   -9.1340   -1.1154  -17.0711 C   0  0  0  0  0  0  0  0  0  0  0  0
   -8.9510   -0.8039  -15.7814 C   0  0  0  0  0  0  0  0  0  0  0  0
   -7.7781   -1.0822  -15.0934 O   0  0  0  0  0  0  0  0  0  0  0  0
   -8.0278   -1.8906  -13.9418 C   0  0  1  0  0  0  0  0  0  0  0  0
   -6.8158   -2.2293  -13.2255 O   0  0  0  0  0  0  0  0  0  0  0  0
   -6.1650   -3.3887  -13.6385 C   0  0  0  0  0  0  0  0  0  0  0  0
   -5.4242   -4.1545  -12.7972 C   0  0  0  0  0  0  0  0  0  0  0  0
   -4.7044   -5.2677  -13.2389 O   0  0  0  0  0  0  0  0  0  0  0  0
   -4.5250   -5.4697  -14.5970 C   0  0  0  0  0  0  0  0  0  0  0  0
   -5.1995   -4.7537  -15.5067 C   0  0  0  0  0  0  0  0  0  0  0  0
   -6.1768   -3.6984  -15.1253 C   0  0  0  0  0  0  0  0  0  0  0  0
   -4.9115   -5.0013  -16.9471 C   0  0  0  0  0  0  0  0  0  0  0  0
   -5.5618   -4.3713  -17.8697 N   0  0  0  0  0  0  0  0  0  0  0  0
   -5.2560   -4.6077  -19.1949 C   0  0  0  0  0  0  0  0  0  0  0  0
   -5.9129   -4.0290  -20.0517 O   0  0  0  0  0  0  0  0  0  0  0  0
   -4.2575   -5.4680  -19.6033 N   0  0  0  0  0  0  0  0  0  0  0  0
   -3.5954   -6.1132  -18.7062 C   0  0  0  0  0  0  0  0  0  0  0  0
   -3.8465   -5.9799  -17.2707 C   0  0  0  0  0  0  0  0  0  0  0  0
   -3.2129   -6.6392  -16.2785 C   0  0  0  0  0  0  0  0  0  0  0  0
   -3.6018   -6.4163  -14.9631 N   0  0  0  0  0  0  0  0  0  0  0  0
   -2.1071   -7.6107  -16.4547 C   0  0  0  0  0  0  0  0  0  0  0  0
   -1.1420   -7.5394  -17.5168 O   0  0  0  0  0  0  0  0  0  0  0  0
   -0.7471   -7.2360  -16.1692 O   0  0  0  0  0  0  0  0  0  0  0  0
   -5.0975   -3.8305  -11.3895 C   0  0  0  0  0  0  0  0  0  0  0  0
   -3.9078   -3.1889  -11.2901 N   0  0  0  0  0  0  0  0  0  0  0  0
   -3.4922   -2.8786  -10.0619 C   0  0  0  0  0  0  0  0  0  0  0  0
   -4.1306   -3.1652   -8.9260 N   0  0  0  0  0  0  0  0  0  0  0  0
   -5.2821   -3.8270   -9.0287 C   0  0  0  0  0  0  0  0  0  0  0  0
   -5.8453   -4.2216  -10.2591 C   0  0  0  0  0  0  0  0  0  0  0  0
   -7.0520   -4.9745  -10.2412 C   0  0  0  0  0  0  0  0  0  0  0  0
   -7.6691   -5.2917   -9.0207 C   0  0  0  0  0  0  0  0  0  0  0  0
   -7.1275   -4.8465   -7.8203 C   0  0  0  0  0  0  0  0  0  0  0  0
   -5.9310   -4.1370   -7.8412 C   0  0  0  0  0  0  0  0  0  0  0  0
   -7.6612   -5.0852   -6.5823 O   0  0  0  0  0  0  0  0  0  0  0  0
   -9.0481   -5.4623   -6.5643 C   0  0  1  0  0  0  0  0  0  0  0  0
   -9.2998   -6.5530   -7.5731 C   0  0  0  0  0  0  0  0  0  0  0  0
   -9.7502   -7.6660   -7.3516 O   0  0  0  0  0  0  0  0  0  0  0  0
   -8.8642   -6.1477   -8.9654 C   0  0  0  0  0  0  0  0  0  0  0  0
   -9.4615   -6.5173   -9.9612 O   0  0  0  0  0  0  0  0  0  0  0  0
   -9.4373   -5.8490   -5.1633 C   0  0  2  0  0  0  0  0  0  0  0  0
   -8.4779   -6.5894   -4.3784 O   0  0  0  0  0  0  0  0  0  0  0  0
  -10.7945   -6.2495   -4.9597 O   0  0  0  0  0  0  0  0  0  0  0  0
  -10.4339   -5.0672   -4.4460 C   0  0  0  0  0  0  0  0  0  0  0  0
  -10.9035   -3.9582   -4.6527 O   0  0  0  0  0  0  0  0  0  0  0  0
   -8.9771   -1.2350  -12.9450 C   0  0  0  0  0  0  0  0  0  0  0  0
   -9.0975   -1.5658  -11.7718 O   0  0  0  0  0  0  0  0  0  0  0  0
   -9.9076   -0.2101  -13.5573 C   0  0  0  0  0  0  0  0  0  0  0  0
  -10.5348    0.5600  -12.8468 O   0  0  0  0  0  0  0  0  0  0  0  0
  -10.0851   -0.1766  -15.0583 C   0  0  0  0  0  0  0  0  0  0  0  0
  -11.0962    0.2532  -15.5863 O   0  0  0  0  0  0  0  0  0  0  0  0
  1  2  1  0  0  0  0
  2  3  2  0  0  0  0
  3  4  1  0  0  0  0
  3 50  1  0  0  0  0
  4  5  1  0  0  0  0
  5 46  1  0  0  0  0
  5  6  1  1  0  0  0
  6  7  1  0  0  0  0
  7  8  2  0  0  0  0
  7 12  1  0  0  0  0
  8  9  1  0  0  0  0
  8 25  1  0  0  0  0
  9 10  1  0  0  0  0
 10 11  2  0  0  0  0
 10 21  1  0  0  0  0
 11 12  1  0  0  0  0
 11 13  1  0  0  0  0
 13 14  2  0  0  0  0
 13 19  1  0  0  0  0
 14 15  1  0  0  0  0
 15 16  2  0  0  0  0
 15 17  1  0  0  0  0
 17 18  2  0  0  0  0
 18 19  1  0  0  0  0
 19 20  2  0  0  0  0
 20 21  1  0  0  0  0
 20 22  1  0  0  0  0
 22 23  1  0  0  0  0
 22 24  1  0  0  0  0
 23 24  1  0  0  0  0
 25 26  2  0  0  0  0
 25 30  1  0  0  0  0
 26 27  1  0  0  0  0
 27 28  2  0  0  0  0
 28 29  1  0  0  0  0
 29 30  2  0  0  0  0
 29 34  1  0  0  0  0
 30 31  1  0  0  0  0
 31 32  2  0  0  0  0
 32 33  1  0  0  0  0
 32 39  1  0  0  0  0
 33 34  2  0  0  0  0
 33 35  1  0  0  0  0
 36 35  1  1  0  0  0
 36 37  1  0  0  0  0
 37 38  2  0  0  0  0
 37 39  1  0  0  0  0
 39 40  2  0  0  0  0
 41 43  1  0  0  0  0
 41 44  1  0  0  0  0
 41 42  1  1  0  0  0
 41 36  1  0  0  0  0
 43 44  1  0  0  0  0
 44 45  2  0  0  0  0
 46 47  2  0  0  0  0
 46 48  1  0  0  0  0
 48 49  2  0  0  0  0
 48 50  1  0  0  0  0
 50 51  2  0  0  0  0
M  END
$$$$