
 OpenBabel11262000203D

 54 62  0  0  1  0  0  0  0  0999 V2000
   -0.2032   -3.0214   -4.7050 O   0  0  0  0  0  0  0  0  0  0  0  0
    0.2032   -1.9125   -4.0058 C   0  0  0  0  0  0  0  0  0  0  0  0
    0.7850   -1.9939   -2.8039 C   0  0  0  0  0  0  0  0  0  0  0  0
    0.9792   -3.2227   -2.1914 O   0  0  0  0  0  0  0  0  0  0  0  0
    2.1673   -3.2237   -1.4075 C   0  0  2  0  0  0  0  0  0  0  0  0
    2.4444   -4.5502   -0.9034 O   0  0  0  0  0  0  0  0  0  0  0  0
    2.6489   -5.5418   -1.8529 C   0  0  0  0  0  0  0  0  0  0  0  0
    2.3859   -6.8278   -1.5518 C   0  0  0  0  0  0  0  0  0  0  0  0
    2.5377   -7.8777   -2.4478 O   0  0  0  0  0  0  0  0  0  0  0  0
    3.0308   -7.6084   -3.7195 C   0  0  0  0  0  0  0  0  0  0  0  0
    3.3661   -6.3624   -4.1020 C   0  0  0  0  0  0  0  0  0  0  0  0
    3.1879   -5.1742   -3.2160 C   0  0  0  0  0  0  0  0  0  0  0  0
    3.9163   -6.0983   -5.4869 C   0  0  3  0  0  0  0  0  0  0  0  0
    5.1898   -5.4880   -5.3350 O   0  0  0  0  0  0  0  0  0  0  0  0
    5.9168   -5.3269   -6.4599 C   0  0  0  0  0  0  0  0  0  0  0  0
    6.9299   -4.5454   -6.4296 N   0  0  0  0  0  0  0  0  0  0  0  0
    5.5577   -5.9632   -7.5936 O   0  0  0  0  0  0  0  0  0  0  0  0
    4.7102   -7.0120   -7.5802 C   0  0  0  0  0  0  0  0  0  0  0  0
    4.4113   -7.6385   -8.5872 O   0  0  0  0  0  0  0  0  0  0  0  0
    4.0995   -7.3184   -6.2923 C   0  0  0  0  0  0  0  0  0  0  0  0
    3.7220   -8.5432   -5.8719 C   0  0  0  0  0  0  0  0  0  0  0  0
    3.1721   -8.6583   -4.5919 N   0  0  0  0  0  0  0  0  0  0  0  0
    3.8796   -9.7995   -6.6459 C   0  0  0  0  0  0  0  0  0  0  0  0
    5.0699  -10.5949   -6.5416 O   0  0  0  0  0  0  0  0  0  0  0  0
    3.8292  -11.0856   -5.9991 O   0  0  0  0  0  0  0  0  0  0  0  0
    1.9042   -7.2399   -0.2260 C   0  0  0  0  0  0  0  0  0  0  0  0
    2.8436   -7.5839    0.7458 C   0  0  0  0  0  0  0  0  0  0  0  0
    2.4309   -8.0225    1.9361 N   0  3  0  0  0  0  0  0  0  0  0  0
    3.3445   -8.3655    2.8673 F   0  0  0  0  0  0  0  0  0  0  0  0
    1.1508   -8.1626    2.2258 N   0  0  0  0  0  0  0  0  0  0  0  0
    0.2268   -7.8252    1.3030 C   0  0  0  0  0  0  0  0  0  0  0  0
    0.5694   -7.3378    0.0527 N   0  3  0  0  0  0  0  0  0  0  0  0
   -0.4086   -6.9815   -0.8319 C   0  0  0  0  0  0  0  0  0  0  0  0
   -1.7545   -7.1351   -0.5175 C   0  0  0  0  0  0  0  0  0  0  0  0
   -2.7741   -6.7001   -1.4635 C   0  0  0  0  0  0  0  0  0  0  0  0
   -2.4566   -6.1359   -2.4917 O   0  0  0  0  0  0  0  0  0  0  0  0
   -4.1939   -7.0077   -1.0650 C   0  0  0  0  0  0  0  0  0  0  0  0
   -4.9769   -7.4423   -1.8906 O   0  0  0  0  0  0  0  0  0  0  0  0
   -4.4182   -6.9036    0.4261 C   0  0  1  0  0  0  0  0  0  0  0  0
   -3.4330   -7.7039    1.1358 O   0  0  0  0  0  0  0  0  0  0  0  0
   -2.1352   -7.6301    0.7108 C   0  0  0  0  0  0  0  0  0  0  0  0
   -1.1311   -7.9830    1.6038 C   0  0  0  0  0  0  0  0  0  0  0  0
   -1.4688   -8.4553    2.8128 F   0  0  0  0  0  0  0  0  0  0  0  0
   -4.4679   -5.4677    0.8983 C   0  0  1  0  0  0  0  0  0  0  0  0
   -5.4956   -4.6511    0.3176 O   0  0  0  0  0  0  0  0  0  0  0  0
   -4.2201   -5.2567    2.2908 O   0  0  0  0  0  0  0  0  0  0  0  0
   -3.3174   -4.7411    1.4393 C   0  0  0  0  0  0  0  0  0  0  0  0
   -2.1241   -4.9390    1.3191 O   0  0  0  0  0  0  0  0  0  0  0  0
    1.9229   -2.2787   -0.2375 C   0  0  0  0  0  0  0  0  0  0  0  0
    2.0539   -2.6519    0.9312 O   0  0  0  0  0  0  0  0  0  0  0  0
    1.5416   -0.8656   -0.6361 C   0  0  3  0  0  0  0  0  0  0  0  0
    1.2278   -0.7376   -2.1141 C   0  0  0  0  0  0  0  0  0  0  0  0
    1.3324    0.3205   -2.7265 O   0  0  0  0  0  0  0  0  0  0  0  0
    0.4997   -0.4142    0.1210 F   0  0  0  0  0  0  0  0  0  0  0  0
  1  2  1  0  0  0  0
  2  3  2  0  0  0  0
  3  4  1  0  0  0  0
  3 52  1  0  0  0  0
  4  5  1  0  0  0  0
  5  6  1  1  0  0  0
  5 49  1  0  0  0  0
  6  7  1  0  0  0  0
  7  8  2  0  0  0  0
  7 12  1  0  0  0  0
  8  9  1  0  0  0  0
  8 26  1  0  0  0  0
  9 10  1  0  0  0  0
 10 11  2  0  0  0  0
 10 22  1  0  0  0  0
 11 12  1  0  0  0  0
 11 13  1  0  0  0  0
 13 14  1  0  0  0  0
 13 20  1  0  0  0  0
 14 15  1  0  0  0  0
 15 16  2  0  0  0  0
 15 17  1  0  0  0  0
 17 18  1  0  0  0  0
 18 19  2  0  0  0  0
 18 20  1  0  0  0  0
 20 21  2  0  0  0  0
 21 22  1  0  0  0  0
 21 23  1  0  0  0  0
 23 24  1  0  0  0  0
 23 25  1  0  0  0  0
 24 25  1  0  0  0  0
 26 27  2  0  0  0  0
 26 32  1  0  0  0  0
 27 28  1  0  0  0  0
 28 29  1  0  0  0  0
 28 30  2  0  0  0  0
 30 31  1  0  0  0  0
 31 32  2  0  0  0  0
 31 42  1  0  0  0  0
 32 33  1  0  0  0  0
 33 34  2  0  0  0  0
 34 35  1  0  0  0  0
 34 41  1  0  0  0  0
 35 36  2  0  0  0  0
 35 37  1  0  0  0  0
 37 38  2  0  0  0  0
 39 37  1  6  0  0  0
 39 40  1  0  0  0  0
 39 44  1  0  0  0  0
 40 41  1  0  0  0  0
 41 42  2  0  0  0  0
 42 43  1  0  0  0  0
 44 45  1  6  0  0  0
 44 46  1  0  0  0  0
 44 47  1  0  0  0  0
 46 47  1  0  0  0  0
 47 48  2  0  0  0  0
 49 50  2  0  0  0  0
 49 51  1  0  0  0  0
 51 52  1  0  0  0  0
 51 54  1  0  0  0  0
 52 53  2  0  0  0  0
M  CHG  2  28   1  32   1
M  END
$$$$