
 OpenBabel11252020443D

 54 62  0  0  1  0  0  0  0  0999 V2000
    5.8736   -3.5500   -3.3698 O   0  0  0  0  0  0  0  0  0  0  0  0
    6.2906   -2.6838   -2.3869 C   0  0  0  0  0  0  0  0  0  0  0  0
    5.6152   -2.4815   -1.2479 C   0  0  0  0  0  0  0  0  0  0  0  0
    4.4126   -3.1262   -0.9942 O   0  0  0  0  0  0  0  0  0  0  0  0
    4.3967   -3.6827    0.3161 C   0  0  2  0  0  0  0  0  0  0  0  0
    3.2893   -4.6014    0.5454 O   0  0  0  0  0  0  0  0  0  0  0  0
    3.2214   -5.7517   -0.2253 C   0  0  0  0  0  0  0  0  0  0  0  0
    2.6633   -6.8971    0.2439 C   0  0  0  0  0  0  0  0  0  0  0  0
    2.5890   -8.0460   -0.5882 O   0  0  0  0  0  0  0  0  0  0  0  0
    3.2377   -8.0690   -1.8466 C   0  0  0  0  0  0  0  0  0  0  0  0
    3.7763   -6.9519   -2.3602 C   0  0  0  0  0  0  0  0  0  0  0  0
    3.7317   -5.6512   -1.6448 C   0  0  0  0  0  0  0  0  0  0  0  0
    4.5338   -6.9267   -3.6664 C   0  0  3  0  0  0  0  0  0  0  0  0
    5.8815   -6.6175   -3.3531 O   0  0  0  0  0  0  0  0  0  0  0  0
    6.7549   -6.5364   -4.3931 C   0  0  0  0  0  0  0  0  0  0  0  0
    7.8000   -5.9158   -4.2931 O   0  0  0  0  0  0  0  0  0  0  0  0
    6.3801   -7.1772   -5.5244 O   0  0  0  0  0  0  0  0  0  0  0  0
    5.3681   -8.1787   -5.5580 C   0  0  3  0  0  0  0  0  0  0  0  0
    4.5850   -8.2595   -4.2945 C   0  0  0  0  0  0  0  0  0  0  0  0
    4.0173   -9.3525   -3.7424 C   0  0  0  0  0  0  0  0  0  0  0  0
    3.3337   -9.2651   -2.5341 O   0  3  0  0  0  0  0  0  0  0  0  0
    4.0955  -10.7085   -4.3289 C   0  0  0  0  0  0  0  0  0  0  0  0
    5.1501  -11.6043   -3.9611 O   0  0  0  0  0  0  0  0  0  0  0  0
    3.8058  -11.8559   -3.5090 O   0  0  0  0  0  0  0  0  0  0  0  0
    4.4109   -7.8226   -6.5346 O   0  0  0  0  0  0  0  0  0  0  0  0
    2.0348   -7.0332    1.6371 C   0  0  0  0  0  0  0  0  0  0  0  0
    1.4066   -5.9139    2.2294 C   0  0  0  0  0  0  0  0  0  0  0  0
    0.7781   -6.0210    3.4018 N   0  3  0  0  0  0  0  0  0  0  0  0
    0.2451   -4.9197    3.9707 F   0  0  0  0  0  0  0  0  0  0  0  0
    0.6575   -7.1661    4.0284 N   0  0  0  0  0  0  0  0  0  0  0  0
    1.2787   -8.2493    3.5412 C   0  0  0  0  0  0  0  0  0  0  0  0
    2.0217   -8.2188    2.3597 N   0  3  0  0  0  0  0  0  0  0  0  0
    2.7208   -9.3324    2.0089 C   0  0  0  0  0  0  0  0  0  0  0  0
    2.6543  -10.5151    2.7333 C   0  0  0  0  0  0  0  0  0  0  0  0
    3.3747  -11.6845    2.2546 C   0  0  0  0  0  0  0  0  0  0  0  0
    4.0099  -11.5897    1.2174 O   0  0  0  0  0  0  0  0  0  0  0  0
    3.2358  -12.9419    3.0811 C   0  0  0  0  0  0  0  0  0  0  0  0
    4.1540  -13.7407    3.1207 O   0  0  0  0  0  0  0  0  0  0  0  0
    1.9358  -13.0143    3.8558 C   0  0  1  0  0  0  0  0  0  0  0  0
    1.6872  -11.7660    4.5566 O   0  0  0  0  0  0  0  0  0  0  0  0
    1.8730  -10.6016    3.8567 C   0  0  0  0  0  0  0  0  0  0  0  0
    1.2033   -9.4515    4.2947 C   0  0  0  0  0  0  0  0  0  0  0  0
    0.2770   -9.5922    5.3500 N   0  0  0  0  0  0  0  0  0  0  0  0
    0.7632  -13.4374    2.9939 C   0  0  1  0  0  0  0  0  0  0  0  0
    0.9177  -14.6572    2.2569 O   0  0  0  0  0  0  0  0  0  0  0  0
   -0.5493  -13.1868    3.5642 O   0  0  0  0  0  0  0  0  0  0  0  0
   -0.2332  -12.5338    2.4500 C   0  0  0  0  0  0  0  0  0  0  0  0
   -0.1556  -11.3462    2.1449 O   0  0  0  0  0  0  0  0  0  0  0  0
    4.2581   -2.5277    1.2799 C   0  0  0  0  0  0  0  0  0  0  0  0
    3.4329   -2.4974    2.1839 O   0  0  0  0  0  0  0  0  0  0  0  0
    5.3090   -1.4576    1.0351 C   0  0  0  0  0  0  0  0  0  0  0  0
    5.4758   -0.5773    1.8583 O   0  0  0  0  0  0  0  0  0  0  0  0
    6.1928   -1.5815   -0.2048 C   0  0  0  0  0  0  0  0  0  0  0  0
    7.3089   -1.1029   -0.2616 O   0  0  0  0  0  0  0  0  0  0  0  0
  1  2  1  0  0  0  0
  2  3  2  0  0  0  0
  3  4  1  0  0  0  0
  3 53  1  0  0  0  0
  4  5  1  0  0  0  0
  5  6  1  6  0  0  0
  5 49  1  0  0  0  0
  6  7  1  0  0  0  0
  7  8  2  0  0  0  0
  7 12  1  0  0  0  0
  8  9  1  0  0  0  0
  8 26  1  0  0  0  0
  9 10  1  0  0  0  0
 10 11  2  0  0  0  0
 10 21  1  0  0  0  0
 11 12  1  0  0  0  0
 11 13  1  0  0  0  0
 13 14  1  0  0  0  0
 13 19  1  0  0  0  0
 14 15  1  0  0  0  0
 15 16  2  0  0  0  0
 15 17  1  0  0  0  0
 17 18  1  0  0  0  0
 18 19  1  0  0  0  0
 18 25  1  0  0  0  0
 19 20  2  0  0  0  0
 20 21  1  0  0  0  0
 20 22  1  0  0  0  0
 22 23  1  0  0  0  0
 22 24  1  0  0  0  0
 23 24  1  0  0  0  0
 26 27  2  0  0  0  0
 26 32  1  0  0  0  0
 27 28  1  0  0  0  0
 28 29  1  0  0  0  0
 28 30  2  0  0  0  0
 30 31  1  0  0  0  0
 31 32  2  0  0  0  0
 31 42  1  0  0  0  0
 32 33  1  0  0  0  0
 33 34  2  0  0  0  0
 34 35  1  0  0  0  0
 34 41  1  0  0  0  0
 35 36  2  0  0  0  0
 35 37  1  0  0  0  0
 37 38  2  0  0  0  0
 39 37  1  6  0  0  0
 39 40  1  0  0  0  0
 39 44  1  0  0  0  0
 40 41  1  0  0  0  0
 41 42  2  0  0  0  0
 42 43  1  0  0  0  0
 44 45  1  6  0  0  0
 44 46  1  0  0  0  0
 44 47  1  0  0  0  0
 46 47  1  0  0  0  0
 47 48  2  0  0  0  0
 49 50  2  0  0  0  0
 49 51  1  0  0  0  0
 51 52  2  0  0  0  0
 51 53  1  0  0  0  0
 53 54  2  0  0  0  0
M  CHG  3  21   1  28   1  32   1
M  END
$$$$