
 OpenBabel11212019243D

 55 63  0  0  1  0  0  0  0  0999 V2000
   -1.0990    2.9135   -2.2862 O   0  0  0  0  0  0  0  0  0  0  0  0
   -0.3296    2.3496   -1.3007 C   0  0  0  0  0  0  0  0  0  0  0  0
    0.7180    1.5555   -1.5544 C   0  0  0  0  0  0  0  0  0  0  0  0
    1.0637    1.2020   -2.8498 O   0  0  0  0  0  0  0  0  0  0  0  0
    2.4623    1.2934   -3.0781 C   0  0  2  0  0  0  0  0  0  0  0  0
    2.7600    0.9287   -4.4532 O   0  0  0  0  0  0  0  0  0  0  0  0
    2.5006    1.8508   -5.4581 C   0  0  0  0  0  0  0  0  0  0  0  0
    2.3581    1.4964   -6.7629 C   0  0  0  0  0  0  0  0  0  0  0  0
    2.1331    2.4785   -7.7548 O   0  0  0  0  0  0  0  0  0  0  0  0
    2.2825    3.8404   -7.4575 C   0  0  0  0  0  0  0  0  0  0  0  0
    2.4752    4.2447   -6.1925 C   0  0  0  0  0  0  0  0  0  0  0  0
    2.5078    3.2956   -5.0515 C   0  0  0  0  0  0  0  0  0  0  0  0
    2.6807    5.6794   -5.8166 C   0  0  3  0  0  0  0  0  0  0  0  0
    4.0053    5.8022   -5.3318 O   0  0  0  0  0  0  0  0  0  0  0  0
    4.4312    7.0440   -4.9763 C   0  0  0  0  0  0  0  0  0  0  0  0
    5.4165    7.1976   -4.2742 O   0  0  0  0  0  0  0  0  0  0  0  0
    3.6980    8.0808   -5.4481 O   0  0  0  0  0  0  0  0  0  0  0  0
    2.7728    7.9719   -6.5257 C   0  0  3  0  0  0  0  0  0  0  0  0
    2.5835    6.5718   -6.9842 C   0  0  0  0  0  0  0  0  0  0  0  0
    2.3672    6.1218   -8.2403 C   0  0  0  0  0  0  0  0  0  0  0  0
    2.2336    4.7574   -8.4899 O   0  3  0  0  0  0  0  0  0  0  0  0
    2.2764    7.0166   -9.4154 C   0  0  0  0  0  0  0  0  0  0  0  0
    3.4403    7.3372  -10.1856 O   0  0  0  0  0  0  0  0  0  0  0  0
    2.4153    6.4918  -10.7451 O   0  0  0  0  0  0  0  0  0  0  0  0
    1.4945    8.3700   -6.0679 O   0  0  0  0  0  0  0  0  0  0  0  0
    2.4013    0.0707   -7.2756 C   0  0  0  0  0  0  0  0  0  0  0  0
    2.0288   -0.9605   -6.4161 C   0  0  0  0  0  0  0  0  0  0  0  0
    2.0343   -2.2342   -6.8049 N   0  3  0  0  0  0  0  0  0  0  0  0
    1.7176   -3.1926   -5.9137 F   0  0  0  0  0  0  0  0  0  0  0  0
    2.3008   -2.5924   -8.0321 N   0  0  0  0  0  0  0  0  0  0  0  0
    2.5861   -1.6879   -8.9685 C   0  0  0  0  0  0  0  0  0  0  0  0
    2.7365   -0.3244   -8.6070 C   0  0  0  0  0  0  0  0  0  0  0  0
    3.2302    0.5507   -9.6009 C   0  0  0  0  0  0  0  0  0  0  0  0
    3.3950    0.1495  -10.9333 C   0  0  0  0  0  0  0  0  0  0  0  0
    3.8350    1.1255  -11.9297 C   0  0  0  0  0  0  0  0  0  0  0  0
    4.1668    2.2485  -11.5754 O   0  0  0  0  0  0  0  0  0  0  0  0
    3.7767    0.7116  -13.3820 C   0  0  0  0  0  0  0  0  0  0  0  0
    4.2636    1.4368  -14.2357 O   0  0  0  0  0  0  0  0  0  0  0  0
    3.0074   -0.5671  -13.6490 C   0  0  1  0  0  0  0  0  0  0  0  0
    3.1538   -1.5647  -12.6181 O   0  0  0  0  0  0  0  0  0  0  0  0
    3.1123   -1.1442  -11.3153 C   0  0  0  0  0  0  0  0  0  0  0  0
    2.7502   -2.0729  -10.3224 C   0  0  0  0  0  0  0  0  0  0  0  0
    2.6165   -3.3722  -10.7947 O   0  0  0  0  0  0  0  0  0  0  0  0
    1.6429   -4.1514  -10.0469 N   0  0  0  0  0  0  0  0  0  0  0  0
    1.5607   -0.2925  -14.0039 C   0  0  1  0  0  0  0  0  0  0  0  0
    1.3198    0.5362  -15.1539 O   0  0  0  0  0  0  0  0  0  0  0  0
    0.6580   -1.4063  -13.8707 O   0  0  0  0  0  0  0  0  0  0  0  0
    0.4722   -0.3712  -13.0330 C   0  0  0  0  0  0  0  0  0  0  0  0
    0.4480   -0.2880  -11.8311 O   0  0  0  0  0  0  0  0  0  0  0  0
    3.2842    0.3814   -2.1858 C   0  0  0  0  0  0  0  0  0  0  0  0
    4.3319   -0.1498   -2.5249 O   0  0  0  0  0  0  0  0  0  0  0  0
    2.7202    0.2329   -0.7931 C   0  0  0  0  0  0  0  0  0  0  0  0
    3.2290   -0.5538   -0.0135 O   0  0  0  0  0  0  0  0  0  0  0  0
    1.5079    1.0492   -0.3949 C   0  0  0  0  0  0  0  0  0  0  0  0
    1.2520    1.3011    0.7683 O   0  0  0  0  0  0  0  0  0  0  0  0
  1  2  1  0  0  0  0
  2  3  2  0  0  0  0
  3  4  1  0  0  0  0
  3 54  1  0  0  0  0
  4  5  1  0  0  0  0
  5  6  1  6  0  0  0
  5 50  1  0  0  0  0
  6  7  1  0  0  0  0
  7  8  2  0  0  0  0
  7 12  1  0  0  0  0
  8  9  1  0  0  0  0
  8 26  1  0  0  0  0
  9 10  1  0  0  0  0
 10 11  2  0  0  0  0
 10 21  1  0  0  0  0
 11 12  1  0  0  0  0
 11 13  1  0  0  0  0
 13 14  1  0  0  0  0
 13 19  1  0  0  0  0
 14 15  1  0  0  0  0
 15 16  2  0  0  0  0
 15 17  1  0  0  0  0
 17 18  1  0  0  0  0
 18 19  1  0  0  0  0
 18 25  1  0  0  0  0
 19 20  2  0  0  0  0
 20 21  1  0  0  0  0
 20 22  1  0  0  0  0
 22 23  1  0  0  0  0
 22 24  1  0  0  0  0
 23 24  1  0  0  0  0
 26 27  2  0  0  0  0
 26 32  1  0  0  0  0
 27 28  1  0  0  0  0
 28 29  1  0  0  0  0
 28 30  2  0  0  0  0
 30 31  1  0  0  0  0
 31 32  2  0  0  0  0
 31 42  1  0  0  0  0
 32 33  1  0  0  0  0
 33 34  2  0  0  0  0
 34 35  1  0  0  0  0
 34 41  1  0  0  0  0
 35 36  2  0  0  0  0
 35 37  1  0  0  0  0
 37 38  2  0  0  0  0
 39 37  1  1  0  0  0
 39 40  1  0  0  0  0
 39 45  1  0  0  0  0
 40 41  1  0  0  0  0
 41 42  2  0  0  0  0
 42 43  1  0  0  0  0
 43 44  1  0  0  0  0
 45 46  1  6  0  0  0
 45 47  1  0  0  0  0
 45 48  1  0  0  0  0
 47 48  1  0  0  0  0
 48 49  2  0  0  0  0
 50 51  2  0  0  0  0
 50 52  1  0  0  0  0
 52 53  2  0  0  0  0
 52 54  1  0  0  0  0
 54 55  2  0  0  0  0
M  CHG  2  21   1  28   1
M  END
$$$$