
 OpenBabel11142002163D

 51 59  0  0  1  0  0  0  0  0999 V2000
    7.6879   -6.8970    0.6272 O   0  0  0  0  0  0  0  0  0  0  0  0
    7.5167   -6.1317    1.7527 C   0  0  0  0  0  0  0  0  0  0  0  0
    6.5007   -5.2719    1.8951 C   0  0  0  0  0  0  0  0  0  0  0  0
    5.5905   -5.0846    0.8750 O   0  0  0  0  0  0  0  0  0  0  0  0
    4.2454   -4.9734    1.3258 C   0  0  2  0  0  0  0  0  0  0  0  0
    3.3250   -4.8969    0.2303 O   0  0  0  0  0  0  0  0  0  0  0  0
    3.3371   -5.9559   -0.6744 C   0  0  0  0  0  0  0  0  0  0  0  0
    3.0109   -5.7901   -1.9818 C   0  0  0  0  0  0  0  0  0  0  0  0
    3.0010   -6.8664   -2.8781 O   0  0  0  0  0  0  0  0  0  0  0  0
    3.1527   -8.1646   -2.4122 C   0  0  0  0  0  0  0  0  0  0  0  0
    3.4320   -8.4119   -1.1261 C   0  0  0  0  0  0  0  0  0  0  0  0
    3.6233   -7.3340   -0.1244 C   0  0  0  0  0  0  0  0  0  0  0  0
    3.5476   -9.8263   -0.6851 C   0  0  0  0  0  0  0  0  0  0  0  0
    3.7658  -10.1092    0.5570 N   0  0  0  0  0  0  0  0  0  0  0  0
    3.8466  -11.4317    0.9415 C   0  0  0  0  0  0  0  0  0  0  0  0
    4.0105  -11.6735    2.1305 O   0  0  0  0  0  0  0  0  0  0  0  0
    3.7484  -12.4887    0.0573 N   0  0  0  0  0  0  0  0  0  0  0  0
    3.5392  -12.2350   -1.1889 C   0  0  0  0  0  0  0  0  0  0  0  0
    3.3947  -10.8767   -1.7146 C   0  0  0  0  0  0  0  0  0  0  0  0
    3.1365  -10.5308   -2.9927 C   0  0  0  0  0  0  0  0  0  0  0  0
    2.9999   -9.1860   -3.3175 N   0  0  0  0  0  0  0  0  0  0  0  0
    2.9764  -11.4932   -4.1084 C   0  0  0  0  0  0  0  0  0  0  0  0
    3.3267  -11.1560   -5.4623 O   0  0  0  0  0  0  0  0  0  0  0  0
    4.1104  -12.1180   -4.7307 O   0  0  0  0  0  0  0  0  0  0  0  0
    2.6608   -4.4721   -2.5962 C   0  0  0  0  0  0  0  0  0  0  0  0
    3.2767   -3.4101   -2.0325 N   0  0  0  0  0  0  0  0  0  0  0  0
    3.0244   -2.1982   -2.4483 N   0  0  0  0  0  0  0  0  0  0  0  0
    2.1956   -1.9584   -3.4248 N   0  0  0  0  0  0  0  0  0  0  0  0
    1.5692   -2.9653   -4.0329 C   0  0  0  0  0  0  0  0  0  0  0  0
    1.7628   -4.2972   -3.6641 C   0  0  0  0  0  0  0  0  0  0  0  0
    1.0264   -5.2964   -4.3640 C   0  0  0  0  0  0  0  0  0  0  0  0
    0.1224   -4.9561   -5.3771 C   0  0  0  0  0  0  0  0  0  0  0  0
   -0.0435   -3.6332   -5.7453 C   0  0  0  0  0  0  0  0  0  0  0  0
    0.6816   -2.6554   -5.0634 C   0  0  0  0  0  0  0  0  0  0  0  0
   -0.8887   -3.1862   -6.7201 O   0  0  0  0  0  0  0  0  0  0  0  0
   -1.4863   -4.1659   -7.5759 C   0  0  2  0  0  0  0  0  0  0  0  0
   -1.7774   -5.5072   -6.9441 C   0  0  0  0  0  0  0  0  0  0  0  0
   -2.7736   -6.1799   -7.1682 O   0  0  0  0  0  0  0  0  0  0  0  0
   -0.7033   -5.9937   -6.0029 C   0  0  0  0  0  0  0  0  0  0  0  0
   -0.5661   -7.1785   -5.7435 O   0  0  0  0  0  0  0  0  0  0  0  0
   -0.6716   -4.3389   -8.8176 C   0  0  1  0  0  0  0  0  0  0  0  0
    0.6881   -4.8041   -8.6368 O   0  0  0  0  0  0  0  0  0  0  0  0
   -1.3834   -4.9252   -9.9098 O   0  0  0  0  0  0  0  0  0  0  0  0
   -0.9514   -3.6613  -10.0833 C   0  0  0  0  0  0  0  0  0  0  0  0
   -0.1945   -3.2139  -10.9145 O   0  0  0  0  0  0  0  0  0  0  0  0
    4.1408   -3.7548    2.2454 C   0  0  0  0  0  0  0  0  0  0  0  0
    3.2880   -2.8756    2.1175 O   0  0  0  0  0  0  0  0  0  0  0  0
    5.0621   -3.8123    3.4411 C   0  0  3  0  0  0  0  0  0  0  0  0
    6.3728   -4.5197    3.1835 C   0  0  0  0  0  0  0  0  0  0  0  0
    7.2762   -4.5469    4.0201 O   0  0  0  0  0  0  0  0  0  0  0  0
    5.2647   -2.5763    3.9902 F   0  0  0  0  0  0  0  0  0  0  0  0
  1  2  1  0  0  0  0
  2  3  2  0  0  0  0
  3  4  1  0  0  0  0
  3 49  1  0  0  0  0
  4  5  1  0  0  0  0
  5  6  1  6  0  0  0
  5 46  1  0  0  0  0
  6  7  1  0  0  0  0
  7  8  2  0  0  0  0
  7 12  1  0  0  0  0
  8  9  1  0  0  0  0
  8 25  1  0  0  0  0
  9 10  1  0  0  0  0
 10 11  2  0  0  0  0
 10 21  1  0  0  0  0
 11 12  1  0  0  0  0
 11 13  1  0  0  0  0
 13 14  2  0  0  0  0
 13 19  1  0  0  0  0
 14 15  1  0  0  0  0
 15 16  2  0  0  0  0
 15 17  1  0  0  0  0
 17 18  2  0  0  0  0
 18 19  1  0  0  0  0
 19 20  2  0  0  0  0
 20 21  1  0  0  0  0
 20 22  1  0  0  0  0
 22 23  1  0  0  0  0
 22 24  1  0  0  0  0
 23 24  1  0  0  0  0
 25 26  2  0  0  0  0
 25 30  1  0  0  0  0
 26 27  1  0  0  0  0
 27 28  2  0  0  0  0
 28 29  1  0  0  0  0
 29 30  2  0  0  0  0
 29 34  1  0  0  0  0
 30 31  1  0  0  0  0
 31 32  2  0  0  0  0
 32 33  1  0  0  0  0
 32 39  1  0  0  0  0
 33 34  2  0  0  0  0
 33 35  1  0  0  0  0
 36 35  1  1  0  0  0
 36 37  1  0  0  0  0
 36 41  1  0  0  0  0
 37 38  2  0  0  0  0
 37 39  1  0  0  0  0
 39 40  2  0  0  0  0
 41 42  1  1  0  0  0
 41 43  1  0  0  0  0
 41 44  1  0  0  0  0
 43 44  1  0  0  0  0
 44 45  2  0  0  0  0
 46 47  2  0  0  0  0
 46 48  1  0  0  0  0
 48 49  1  0  0  0  0
 48 51  1  0  0  0  0
 49 50  2  0  0  0  0
M  END
$$$$