
 OpenBabel11242000523D

 53 62  0  0  1  0  0  0  0  0999 V2000
  -12.8680    7.0731   12.5017 O   0  0  0  0  0  0  0  0  0  0  0  0
  -12.7048    8.4004   12.8051 C   0  0  0  0  0  0  0  0  0  0  0  0
  -12.0874    9.2579   11.9835 C   0  0  0  0  0  0  0  0  0  0  0  0
  -11.5326    8.8211   10.7910 O   0  0  0  0  0  0  0  0  0  0  0  0
  -11.6952    9.7359    9.7130 C   0  0  2  0  0  0  0  0  0  0  0  0
  -11.1338    9.2147    8.4926 O   0  0  0  0  0  0  0  0  0  0  0  0
  -11.6489    8.0090    8.0396 C   0  0  0  0  0  0  0  0  0  0  0  0
  -10.8786    7.1604    7.3341 C   0  0  0  0  0  0  0  0  0  0  0  0
  -11.3464    5.9673    6.8102 O   0  0  0  0  0  0  0  0  0  0  0  0
  -12.6902    5.6387    6.9576 C   0  0  0  0  0  0  0  0  0  0  0  0
  -13.5691    6.4451    7.5799 C   0  0  0  0  0  0  0  0  0  0  0  0
  -13.1169    7.7194    8.2353 C   0  0  0  0  0  0  0  0  0  0  0  0
  -15.0161    6.0014    7.6065 C   0  0  0  0  0  0  0  0  0  0  0  0
  -16.1621    7.1139    8.2074 P   0  0  0  0  0  0  0  0  0  0  0  0
  -17.6757    6.2939    8.1177 C   0  0  0  0  0  0  0  0  0  0  0  0
  -18.6459    7.0395    8.5126 N   0  0  0  0  0  0  0  0  0  0  0  0
  -18.1479    4.7124    7.6411 P   0  0  0  0  0  0  0  0  0  0  0  0
  -16.6978    4.0279    7.1290 C   0  0  0  0  0  0  0  0  0  0  0  0
  -15.3580    4.6379    7.0909 C   0  0  0  0  0  0  0  0  0  0  0  0
  -14.3543    3.9122    6.5301 C   0  0  0  0  0  0  0  0  0  0  0  0
  -13.0734    4.4385    6.4382 N   0  0  0  0  0  0  0  0  0  0  0  0
  -14.4999    2.5427    5.9855 C   0  0  3  0  0  0  0  0  0  0  0  0
  -13.6827    2.1494    4.8854 N   0  0  0  0  0  0  0  0  0  0  0  0
  -14.8759    2.3873    4.6263 N   0  0  0  0  0  0  0  0  0  0  0  0
   -9.4938    7.4944    6.9645 C   0  0  0  0  0  0  0  0  0  0  0  0
   -9.3186    8.2416    5.8070 C   0  0  0  0  0  0  0  0  0  0  0  0
   -8.1024    8.6443    5.4358 N   0  3  0  0  0  0  0  0  0  0  0  0
   -7.9686    9.3600    4.3033 F   0  0  0  0  0  0  0  0  0  0  0  0
   -7.0199    8.3807    6.1417 N   0  0  0  0  0  0  0  0  0  0  0  0
   -7.1156    7.6627    7.2683 C   0  0  0  0  0  0  0  0  0  0  0  0
   -8.3565    7.1667    7.7240 C   0  0  0  0  0  0  0  0  0  0  0  0
   -8.3951    6.3719    8.8933 C   0  0  0  0  0  0  0  0  0  0  0  0
   -7.2229    6.0770    9.5962 C   0  0  0  0  0  0  0  0  0  0  0  0
   -6.0096    6.6050    9.1717 C   0  0  0  0  0  0  0  0  0  0  0  0
   -5.9500    7.4147    8.0215 C   0  0  0  0  0  0  0  0  0  0  0  0
   -4.6814    7.7945    7.5223 N   0  0  0  0  0  0  0  0  0  0  0  0
   -4.8284    6.3812    9.8492 O   0  0  0  0  0  0  0  0  0  0  0  0
   -5.0166    6.0613   11.2478 C   0  0  1  0  0  0  0  0  0  0  0  0
   -5.9551    4.9646   11.5147 C   0  0  0  0  0  0  0  0  0  0  0  0
   -5.7500    4.0209   12.2524 O   0  0  0  0  0  0  0  0  0  0  0  0
   -7.2628    5.2008   10.7825 C   0  0  0  0  0  0  0  0  0  0  0  0
   -8.3116    4.7219   11.1772 O   0  0  0  0  0  0  0  0  0  0  0  0
   -3.8928    6.1727   12.0815 O   0  0  0  0  0  0  0  0  0  0  0  0
   -4.9583    7.1516   12.2731 C   0  0  1  0  0  0  0  0  0  0  0  0
   -4.8701    8.4235   11.5254 O   0  0  0  0  0  0  0  0  0  0  0  0
   -4.3264    8.3661   12.7252 C   0  0  0  0  0  0  0  0  0  0  0  0
   -4.4871    9.0661   13.6975 O   0  0  0  0  0  0  0  0  0  0  0  0
  -10.9583   11.0189   10.0353 C   0  0  0  0  0  0  0  0  0  0  0  0
  -10.1053   11.5464    9.3419 O   0  0  0  0  0  0  0  0  0  0  0  0
  -11.3973   11.6064   11.3534 C   0  0  0  0  0  0  0  0  0  0  0  0
  -11.3226   12.8079   11.5300 O   0  0  0  0  0  0  0  0  0  0  0  0
  -11.9903   10.6869   12.4047 C   0  0  0  0  0  0  0  0  0  0  0  0
  -12.3750   11.1094   13.4824 O   0  0  0  0  0  0  0  0  0  0  0  0
  1  2  1  0  0  0  0
  2  3  2  0  0  0  0
  3  4  1  0  0  0  0
  3 52  1  0  0  0  0
  4  5  1  0  0  0  0
  5  6  1  6  0  0  0
  5 48  1  0  0  0  0
  6  7  1  0  0  0  0
  7  8  2  0  0  0  0
  7 12  1  0  0  0  0
  8  9  1  0  0  0  0
  8 25  1  0  0  0  0
  9 10  1  0  0  0  0
 10 11  2  0  0  0  0
 10 21  1  0  0  0  0
 11 12  1  0  0  0  0
 11 13  1  0  0  0  0
 13 14  2  0  0  0  0
 13 19  1  0  0  0  0
 14 15  1  0  0  0  0
 15 16  2  0  0  0  0
 15 17  1  0  0  0  0
 17 18  2  0  0  0  0
 18 19  1  0  0  0  0
 19 20  2  0  0  0  0
 20 21  1  0  0  0  0
 20 22  1  0  0  0  0
 22 23  1  0  0  0  0
 22 24  1  0  0  0  0
 23 24  2  0  0  0  0
 25 26  2  0  0  0  0
 25 31  1  0  0  0  0
 26 27  1  0  0  0  0
 27 28  1  0  0  0  0
 27 29  2  0  0  0  0
 29 30  1  0  0  0  0
 30 31  2  0  0  0  0
 30 35  1  0  0  0  0
 31 32  1  0  0  0  0
 32 33  2  0  0  0  0
 33 34  1  0  0  0  0
 33 41  1  0  0  0  0
 34 35  2  0  0  0  0
 34 37  1  0  0  0  0
 35 36  1  0  0  0  0
 38 37  1  6  0  0  0
 38 39  1  0  0  0  0
 38 43  1  0  0  0  0
 38 44  1  0  0  0  0
 39 40  2  0  0  0  0
 39 41  1  0  0  0  0
 41 42  2  0  0  0  0
 44 43  1  6  0  0  0
 44 45  1  0  0  0  0
 44 46  1  0  0  0  0
 45 46  1  0  0  0  0
 46 47  2  0  0  0  0
 48 49  2  0  0  0  0
 48 50  1  0  0  0  0
 50 51  2  0  0  0  0
 50 52  1  0  0  0  0
 52 53  2  0  0  0  0
M  CHG  1  27   1
M  END
$$$$