
 OpenBabel11222002093D

 54 62  0  0  1  0  0  0  0  0999 V2000
    2.1342    3.7024    4.4791 O   0  0  0  0  0  0  0  0  0  0  0  0
    2.1339    2.6735    3.5750 C   0  0  0  0  0  0  0  0  0  0  0  0
    1.9940    2.8550    2.2553 C   0  0  0  0  0  0  0  0  0  0  0  0
    1.8365    4.1126    1.7147 O   0  0  0  0  0  0  0  0  0  0  0  0
    1.6550    4.2911    0.3094 C   0  0  2  0  0  0  0  0  0  0  0  0
    0.2979    4.7375    0.0508 O   0  0  0  0  0  0  0  0  0  0  0  0
    0.0406    5.7569   -0.8576 C   0  0  0  0  0  0  0  0  0  0  0  0
   -1.0031    6.6276   -0.7380 C   0  0  0  0  0  0  0  0  0  0  0  0
   -1.1895    7.6500   -1.6690 O   0  0  0  0  0  0  0  0  0  0  0  0
   -0.4158    7.7476   -2.8468 C   0  0  3  0  0  0  0  0  0  0  0  0
    0.9819    7.2314   -2.6334 C   0  0  3  0  0  0  0  0  0  0  0  0
    0.9133    5.8241   -2.0920 C   0  0  0  0  0  0  0  0  0  0  0  0
    1.7346    7.3599   -3.9239 C   0  0  0  0  0  0  0  0  0  0  0  0
    2.5909    6.4688   -4.2895 N   0  0  0  0  0  0  0  0  0  0  0  0
    3.3338    6.8006   -5.3832 C   0  0  0  0  0  0  0  0  0  0  0  0
    3.6490    5.8797   -6.2069 N   0  0  0  0  0  0  0  0  0  0  0  0
    3.7412    8.0755   -5.6446 N   0  0  0  0  0  0  0  0  0  0  0  0
    2.8864    8.9615   -5.2711 C   0  0  0  0  0  0  0  0  0  0  0  0
    1.5250    8.6233   -4.7241 C   0  0  3  0  0  0  0  0  0  0  0  0
    0.7741    9.6381   -3.8394 C   0  0  3  0  0  0  0  0  0  0  0  0
   -0.4424    9.0710   -3.3379 O   0  3  0  0  0  0  0  0  0  0  0  0
    0.4868   10.9388   -4.5352 C   0  0  0  0  0  0  0  0  0  0  0  0
   -0.3343   10.8289   -5.6967 O   0  0  0  0  0  0  0  0  0  0  0  0
   -0.8635   11.3989   -4.4778 O   0  0  0  0  0  0  0  0  0  0  0  0
    3.1964   10.2465   -5.4061 O   0  0  0  0  0  0  0  0  0  0  0  0
   -2.1008    6.6493    0.3288 C   0  0  0  0  0  0  0  0  0  0  0  0
   -2.1862    5.6734    1.3227 C   0  0  0  0  0  0  0  0  0  0  0  0
   -3.2276    5.7130    2.2325 C   0  0  0  0  0  0  0  0  0  0  0  0
   -3.2611    4.7826    3.1949 F   0  0  0  0  0  0  0  0  0  0  0  0
   -4.2126    6.6265    2.2206 N   0  0  0  0  0  0  0  0  0  0  0  0
   -4.1511    7.5976    1.2938 C   0  0  0  0  0  0  0  0  0  0  0  0
   -3.1043    7.6561    0.3354 C   0  0  0  0  0  0  0  0  0  0  0  0
   -3.0447    8.6723   -0.5393 N   0  0  0  0  0  0  0  0  0  0  0  0
   -3.9501    9.6613   -0.4789 C   0  0  0  0  0  0  0  0  0  0  0  0
   -3.6535   10.7793   -1.3746 C   0  0  0  0  0  0  0  0  0  0  0  0
   -2.6235   10.8121   -2.0473 O   0  0  0  0  0  0  0  0  0  0  0  0
   -4.6556   11.9099   -1.3312 C   0  0  0  0  0  0  0  0  0  0  0  0
   -4.7056   12.7206   -2.2421 O   0  0  0  0  0  0  0  0  0  0  0  0
   -5.4187   12.0115   -0.0226 C   0  0  1  0  0  0  0  0  0  0  0  0
   -5.9002   10.7387    0.4554 O   0  0  0  0  0  0  0  0  0  0  0  0
   -5.0095    9.7026    0.3924 C   0  0  0  0  0  0  0  0  0  0  0  0
   -5.1476    8.6103    1.2597 C   0  0  0  0  0  0  0  0  0  0  0  0
   -6.1391    8.6573    2.2746 N   0  0  0  0  0  0  0  0  0  0  0  0
   -4.6218   12.7174    1.0415 C   0  0  1  0  0  0  0  0  0  0  0  0
   -5.2770   12.8833    2.3168 O   0  0  0  0  0  0  0  0  0  0  0  0
   -3.2451   12.3285    1.0983 O   0  0  0  0  0  0  0  0  0  0  0  0
   -3.4958   13.6213    0.7895 C   0  0  0  0  0  0  0  0  0  0  0  0
   -3.1201   14.6173    1.3526 O   0  0  0  0  0  0  0  0  0  0  0  0
    2.0400    3.1436   -0.6381 C   0  0  0  0  0  0  0  0  0  0  0  0
    1.9099    3.1496   -1.8548 O   0  0  0  0  0  0  0  0  0  0  0  0
    2.5954    1.9359    0.0403 C   0  0  0  0  0  0  0  0  0  0  0  0
    3.4391    1.2455   -0.5063 O   0  0  0  0  0  0  0  0  0  0  0  0
    2.1377    1.6354    1.4307 C   0  0  0  0  0  0  0  0  0  0  0  0
    1.9299    0.4964    1.8078 O   0  0  0  0  0  0  0  0  0  0  0  0
  1  2  1  0  0  0  0
  2  3  2  0  0  0  0
  3  4  1  0  0  0  0
  3 53  1  0  0  0  0
  4  5  1  0  0  0  0
  5  6  1  1  0  0  0
  5 49  1  0  0  0  0
  6  7  1  0  0  0  0
  7  8  2  0  0  0  0
  7 12  1  0  0  0  0
  8  9  1  0  0  0  0
  8 26  1  0  0  0  0
  9 10  1  0  0  0  0
 10 11  1  0  0  0  0
 10 21  1  0  0  0  0
 11 12  1  0  0  0  0
 11 13  1  0  0  0  0
 13 14  2  0  0  0  0
 13 19  1  0  0  0  0
 14 15  1  0  0  0  0
 15 16  2  0  0  0  0
 15 17  1  0  0  0  0
 17 18  2  0  0  0  0
 18 19  1  0  0  0  0
 18 25  1  0  0  0  0
 19 20  1  0  0  0  0
 20 21  1  0  0  0  0
 20 22  1  0  0  0  0
 22 23  1  0  0  0  0
 22 24  1  0  0  0  0
 23 24  1  0  0  0  0
 26 27  2  0  0  0  0
 26 32  1  0  0  0  0
 27 28  1  0  0  0  0
 28 29  1  0  0  0  0
 28 30  2  0  0  0  0
 30 31  1  0  0  0  0
 31 32  2  0  0  0  0
 31 42  1  0  0  0  0
 32 33  1  0  0  0  0
 33 34  2  0  0  0  0
 34 35  1  0  0  0  0
 34 41  1  0  0  0  0
 35 36  2  0  0  0  0
 35 37  1  0  0  0  0
 37 38  2  0  0  0  0
 39 37  1  6  0  0  0
 39 40  1  0  0  0  0
 39 44  1  0  0  0  0
 40 41  1  0  0  0  0
 41 42  2  0  0  0  0
 42 43  1  0  0  0  0
 44 45  1  1  0  0  0
 44 46  1  0  0  0  0
 44 47  1  0  0  0  0
 46 47  1  0  0  0  0
 47 48  2  0  0  0  0
 49 50  2  0  0  0  0
 49 51  1  0  0  0  0
 51 52  2  0  0  0  0
 51 53  1  0  0  0  0
 53 54  2  0  0  0  0
M  CHG  1  21   1
M  END
$$$$