
 OpenBabel11252011363D

 54 62  0  0  1  0  0  0  0  0999 V2000
    0.5465   -3.7441   -5.2527 O   0  0  0  0  0  0  0  0  0  0  0  0
    0.7590   -2.5717   -4.5689 C   0  0  0  0  0  0  0  0  0  0  0  0
    1.1106   -2.5307   -3.2776 C   0  0  0  0  0  0  0  0  0  0  0  0
    1.2477   -3.6950   -2.5439 O   0  0  0  0  0  0  0  0  0  0  0  0
    2.3327   -3.6448   -1.6123 C   0  0  2  0  0  0  0  0  0  0  0  0
    2.4498   -4.9123   -0.9074 O   0  0  0  0  0  0  0  0  0  0  0  0
    2.6393   -6.0366   -1.7082 C   0  0  0  0  0  0  0  0  0  0  0  0
    2.1770   -7.2631   -1.3585 C   0  0  0  0  0  0  0  0  0  0  0  0
    2.4089   -8.3854   -2.1792 O   0  0  0  0  0  0  0  0  0  0  0  0
    3.1668   -8.2778   -3.3514 C   0  0  0  0  0  0  0  0  0  0  0  0
    3.6627   -7.0929   -3.7428 C   0  0  0  0  0  0  0  0  0  0  0  0
    3.4531   -5.8432   -2.9616 C   0  0  0  0  0  0  0  0  0  0  0  0
    4.4098   -6.9123   -5.0293 C   0  0  3  0  0  0  0  0  0  0  0  0
    5.7259   -6.4906   -4.7341 O   0  0  0  0  0  0  0  0  0  0  0  0
    6.4890   -6.1876   -5.8214 C   0  0  0  0  0  0  0  0  0  0  0  0
    7.4569   -5.4511   -5.7396 O   0  0  0  0  0  0  0  0  0  0  0  0
    6.0662   -6.7279   -6.9921 O   0  0  0  0  0  0  0  0  0  0  0  0
    5.3102   -7.9360   -7.0252 C   0  0  3  0  0  0  0  0  0  0  0  0
    4.5494   -8.1785   -5.7697 C   0  0  0  0  0  0  0  0  0  0  0  0
    4.0476   -9.3521   -5.3241 C   0  0  0  0  0  0  0  0  0  0  0  0
    3.3772   -9.4166   -4.1057 O   0  3  0  0  0  0  0  0  0  0  0  0
    4.1707  -10.6187   -6.0811 C   0  0  0  0  0  0  0  0  0  0  0  0
    5.2857  -11.4942   -5.8784 O   0  0  0  0  0  0  0  0  0  0  0  0
    3.9719  -11.8836   -5.4304 O   0  0  0  0  0  0  0  0  0  0  0  0
    4.3119   -7.8077   -8.0201 O   0  0  0  0  0  0  0  0  0  0  0  0
    1.3784   -7.5405   -0.1056 C   0  0  0  0  0  0  0  0  0  0  0  0
    0.5309   -6.5430    0.3888 C   0  0  0  0  0  0  0  0  0  0  0  0
   -0.1951   -6.7242    1.4956 N   0  3  0  0  0  0  0  0  0  0  0  0
   -0.9618   -5.7124    1.9464 F   0  0  0  0  0  0  0  0  0  0  0  0
   -0.2090   -7.8608    2.1590 N   0  0  0  0  0  0  0  0  0  0  0  0
    0.5215   -8.8880    1.7268 C   0  0  0  0  0  0  0  0  0  0  0  0
    1.3678   -8.7813    0.5996 C   0  0  0  0  0  0  0  0  0  0  0  0
    2.1154   -9.9349    0.2527 C   0  0  0  0  0  0  0  0  0  0  0  0
    1.9188  -11.1671    0.8939 C   0  0  0  0  0  0  0  0  0  0  0  0
    2.5252  -12.3777    0.3340 C   0  0  0  0  0  0  0  0  0  0  0  0
    3.1611  -12.3279   -0.7088 O   0  0  0  0  0  0  0  0  0  0  0  0
    2.2184  -13.6698    1.0543 C   0  0  0  0  0  0  0  0  0  0  0  0
    3.0019  -14.6034    1.0051 O   0  0  0  0  0  0  0  0  0  0  0  0
    0.8924  -13.6560    1.7847 C   0  0  1  0  0  0  0  0  0  0  0  0
    0.7180  -12.4533    2.5649 O   0  0  0  0  0  0  0  0  0  0  0  0
    1.0532  -11.2717    1.9635 C   0  0  0  0  0  0  0  0  0  0  0  0
    0.4097  -10.1123    2.3965 C   0  0  0  0  0  0  0  0  0  0  0  0
   -0.4270  -10.1961    3.4439 F   0  0  0  0  0  0  0  0  0  0  0  0
   -0.2669  -13.9374    0.8525 C   0  0  1  0  0  0  0  0  0  0  0  0
   -0.2288  -15.1963    0.1566 O   0  0  0  0  0  0  0  0  0  0  0  0
   -1.5640  -13.5370    1.3268 O   0  0  0  0  0  0  0  0  0  0  0  0
   -1.0997  -12.9199    0.2388 C   0  0  0  0  0  0  0  0  0  0  0  0
   -0.9032  -11.7467   -0.0338 O   0  0  0  0  0  0  0  0  0  0  0  0
    2.1141   -2.5111   -0.6027 C   0  0  3  0  0  0  0  0  0  0  0  0
    2.1277   -1.1668   -1.3353 C   0  0  3  0  0  0  0  0  0  0  0  0
    1.3563   -1.1927   -2.6515 C   0  0  0  0  0  0  0  0  0  0  0  0
    1.0171   -0.1453   -3.2006 O   0  0  0  0  0  0  0  0  0  0  0  0
    1.6325   -0.1639   -0.4527 O   0  0  0  0  0  0  0  0  0  0  0  0
    0.8773   -2.6836    0.1209 O   0  0  0  0  0  0  0  0  0  0  0  0
  1  2  1  0  0  0  0
  2  3  2  0  0  0  0
  3  4  1  0  0  0  0
  3 51  1  0  0  0  0
  4  5  1  0  0  0  0
  5  6  1  1  0  0  0
  5 49  1  0  0  0  0
  6  7  1  0  0  0  0
  7  8  2  0  0  0  0
  7 12  1  0  0  0  0
  8  9  1  0  0  0  0
  8 26  1  0  0  0  0
  9 10  1  0  0  0  0
 10 11  2  0  0  0  0
 10 21  1  0  0  0  0
 11 12  1  0  0  0  0
 11 13  1  0  0  0  0
 13 14  1  0  0  0  0
 13 19  1  0  0  0  0
 14 15  1  0  0  0  0
 15 16  2  0  0  0  0
 15 17  1  0  0  0  0
 17 18  1  0  0  0  0
 18 19  1  0  0  0  0
 18 25  1  0  0  0  0
 19 20  2  0  0  0  0
 20 21  1  0  0  0  0
 20 22  1  0  0  0  0
 22 23  1  0  0  0  0
 22 24  1  0  0  0  0
 23 24  1  0  0  0  0
 26 27  2  0  0  0  0
 26 32  1  0  0  0  0
 27 28  1  0  0  0  0
 28 29  1  0  0  0  0
 28 30  2  0  0  0  0
 30 31  1  0  0  0  0
 31 32  2  0  0  0  0
 31 42  1  0  0  0  0
 32 33  1  0  0  0  0
 33 34  2  0  0  0  0
 34 35  1  0  0  0  0
 34 41  1  0  0  0  0
 35 36  2  0  0  0  0
 35 37  1  0  0  0  0
 37 38  2  0  0  0  0
 39 37  1  6  0  0  0
 39 40  1  0  0  0  0
 39 44  1  0  0  0  0
 40 41  1  0  0  0  0
 41 42  2  0  0  0  0
 42 43  1  0  0  0  0
 44 45  1  6  0  0  0
 44 46  1  0  0  0  0
 44 47  1  0  0  0  0
 46 47  1  0  0  0  0
 47 48  2  0  0  0  0
 49 50  1  0  0  0  0
 49 54  1  0  0  0  0
 50 51  1  0  0  0  0
 50 53  1  0  0  0  0
 51 52  2  0  0  0  0
M  CHG  2  21   1  28   1
M  END
$$$$