
 OpenBabel10262010563D

 51 59  0  0  1  0  0  0  0  0999 V2000
   -1.6264    3.4567   -4.0434 O   0  0  0  0  0  0  0  0  0  0  0  0
   -1.3075    3.0157   -2.7855 C   0  0  0  0  0  0  0  0  0  0  0  0
   -0.3935    2.0634   -2.5608 C   0  0  0  0  0  0  0  0  0  0  0  0
    0.2401    1.4301   -3.6123 O   0  0  0  0  0  0  0  0  0  0  0  0
    1.5856    1.0234   -3.3590 C   0  0  2  0  0  0  0  0  0  0  0  0
    2.1769    0.4693   -4.5402 O   0  0  0  0  0  0  0  0  0  0  0  0
    2.2749    1.3328   -5.6307 C   0  0  0  0  0  0  0  0  0  0  0  0
    2.2577    0.8775   -6.9037 C   0  0  0  0  0  0  0  0  0  0  0  0
    2.3557    1.7157   -8.0114 O   0  0  0  0  0  0  0  0  0  0  0  0
    2.5565    3.0747   -7.8194 C   0  0  0  0  0  0  0  0  0  0  0  0
    2.6534    3.6213   -6.5960 C   0  0  0  0  0  0  0  0  0  0  0  0
    2.4765    2.8035   -5.3625 C   0  0  0  0  0  0  0  0  0  0  0  0
    2.8415    5.1046   -6.4334 C   0  0  3  0  0  0  0  0  0  0  0  0
    4.0798    5.3603   -5.7509 N   0  0  0  0  0  0  0  0  0  0  0  0
    4.5565    6.6156   -5.5945 C   0  0  0  0  0  0  0  0  0  0  0  0
    5.3983    6.8786   -4.7448 O   0  0  0  0  0  0  0  0  0  0  0  0
    4.0693    7.5535   -6.4396 N   0  0  0  0  0  0  0  0  0  0  0  0
    3.1046    7.3375   -7.4948 C   0  0  0  0  0  0  0  0  0  0  0  0
    2.9024    5.8755   -7.7226 C   0  0  0  0  0  0  0  0  0  0  0  0
    2.7965    5.2460   -8.9166 C   0  0  0  0  0  0  0  0  0  0  0  0
    2.6351    3.8674   -8.9360 N   0  0  0  0  0  0  0  0  0  0  0  0
    2.8418    5.9156  -10.2364 C   0  0  0  0  0  0  0  0  0  0  0  0
    2.1218    5.4013  -11.3722 O   0  0  0  0  0  0  0  0  0  0  0  0
    1.7189    6.6419  -10.7609 O   0  0  0  0  0  0  0  0  0  0  0  0
    2.1384   -0.5533   -7.2475 C   0  0  0  0  0  0  0  0  0  0  0  0
    3.3179   -1.2015   -7.3692 N   0  0  0  0  0  0  0  0  0  0  0  0
    3.2439   -2.5171   -7.5911 C   0  0  0  0  0  0  0  0  0  0  0  0
    2.1207   -3.2429   -7.6716 N   0  0  0  0  0  0  0  0  0  0  0  0
    0.9650   -2.5859   -7.5505 C   0  0  0  0  0  0  0  0  0  0  0  0
    0.8963   -1.1938   -7.3817 C   0  0  0  0  0  0  0  0  0  0  0  0
   -0.3683   -0.5576   -7.3496 C   0  0  0  0  0  0  0  0  0  0  0  0
   -1.5356   -1.3204   -7.3811 C   0  0  0  0  0  0  0  0  0  0  0  0
   -1.4613   -2.7070   -7.4216 C   0  0  0  0  0  0  0  0  0  0  0  0
   -0.2161   -3.3203   -7.5616 C   0  0  0  0  0  0  0  0  0  0  0  0
   -2.5434   -3.5384   -7.3107 O   0  0  0  0  0  0  0  0  0  0  0  0
   -3.7009   -2.9636   -6.6837 C   0  0  2  0  0  0  0  0  0  0  0  0
   -4.0449   -1.5904   -7.2063 C   0  0  0  0  0  0  0  0  0  0  0  0
   -5.1780   -1.2097   -7.4633 O   0  0  0  0  0  0  0  0  0  0  0  0
   -2.8526   -0.6711   -7.3427 C   0  0  0  0  0  0  0  0  0  0  0  0
   -2.9875    0.5389   -7.4214 O   0  0  0  0  0  0  0  0  0  0  0  0
   -3.5683   -2.9536   -5.1899 C   0  0  1  0  0  0  0  0  0  0  0  0
   -2.4863   -2.1675   -4.6281 O   0  0  0  0  0  0  0  0  0  0  0  0
   -4.8123   -2.8644   -4.4929 O   0  0  0  0  0  0  0  0  0  0  0  0
   -4.1017   -3.9957   -4.3120 C   0  0  0  0  0  0  0  0  0  0  0  0
   -3.6378   -4.4588   -3.2958 O   0  0  0  0  0  0  0  0  0  0  0  0
    1.5905    0.0279   -2.2136 C   0  0  0  0  0  0  0  0  0  0  0  0
    2.0734   -1.0928   -2.2087 O   0  0  0  0  0  0  0  0  0  0  0  0
    0.9317    0.6011   -0.9849 C   0  0  0  0  0  0  0  0  0  0  0  0
    1.2917    0.2465    0.1265 O   0  0  0  0  0  0  0  0  0  0  0  0
   -0.1216    1.6789   -1.1473 C   0  0  0  0  0  0  0  0  0  0  0  0
   -0.6664    2.1944   -0.1849 O   0  0  0  0  0  0  0  0  0  0  0  0
  1  2  1  0  0  0  0
  2  3  2  0  0  0  0
  3  4  1  0  0  0  0
  3 50  1  0  0  0  0
  4  5  1  0  0  0  0
  5  6  1  6  0  0  0
  5 46  1  0  0  0  0
  6  7  1  0  0  0  0
  7  8  2  0  0  0  0
  7 12  1  0  0  0  0
  8  9  1  0  0  0  0
  8 25  1  0  0  0  0
  9 10  1  0  0  0  0
 10 11  2  0  0  0  0
 10 21  1  0  0  0  0
 11 12  1  0  0  0  0
 11 13  1  0  0  0  0
 13 14  1  0  0  0  0
 13 19  1  0  0  0  0
 14 15  1  0  0  0  0
 15 16  2  0  0  0  0
 15 17  1  0  0  0  0
 17 18  1  0  0  0  0
 18 19  1  0  0  0  0
 19 20  2  0  0  0  0
 20 21  1  0  0  0  0
 20 22  1  0  0  0  0
 22 23  1  0  0  0  0
 22 24  1  0  0  0  0
 23 24  1  0  0  0  0
 25 26  2  0  0  0  0
 25 30  1  0  0  0  0
 26 27  1  0  0  0  0
 27 28  2  0  0  0  0
 28 29  1  0  0  0  0
 29 30  2  0  0  0  0
 29 34  1  0  0  0  0
 30 31  1  0  0  0  0
 31 32  2  0  0  0  0
 32 33  1  0  0  0  0
 32 39  1  0  0  0  0
 33 34  2  0  0  0  0
 33 35  1  0  0  0  0
 36 35  1  6  0  0  0
 36 37  1  0  0  0  0
 36 41  1  0  0  0  0
 37 38  2  0  0  0  0
 37 39  1  0  0  0  0
 39 40  2  0  0  0  0
 41 42  1  1  0  0  0
 41 43  1  0  0  0  0
 41 44  1  0  0  0  0
 43 44  1  0  0  0  0
 44 45  2  0  0  0  0
 46 47  2  0  0  0  0
 46 48  1  0  0  0  0
 48 49  2  0  0  0  0
 48 50  1  0  0  0  0
 50 51  2  0  0  0  0
M  END
$$$$