
 OpenBabel11232023073D

 54 61  0  0  1  0  0  0  0  0999 V2000
    0.8349   -4.7659   -3.0568 O   0  0  0  0  0  0  0  0  0  0  0  0
    0.1155   -4.2211   -2.0196 C   0  0  0  0  0  0  0  0  0  0  0  0
    0.1371   -4.7551   -0.7957 C   0  0  0  0  0  0  0  0  0  0  0  0
    0.7792   -5.9547   -0.5568 O   0  0  0  0  0  0  0  0  0  0  0  0
    1.8612   -5.8058    0.3491 C   0  0  2  0  0  0  0  0  0  0  0  0
    2.4428   -7.1152    0.6105 O   0  0  0  0  0  0  0  0  0  0  0  0
    2.9635   -7.8190   -0.4780 C   0  0  0  0  0  0  0  0  0  0  0  0
    2.9985   -9.1788   -0.5159 C   0  0  0  0  0  0  0  0  0  0  0  0
    3.6074   -9.8439   -1.5868 O   0  0  0  0  0  0  0  0  0  0  0  0
    4.1161   -9.1672   -2.6823 C   0  0  0  0  0  0  0  0  0  0  0  0
    4.1384   -7.8255   -2.7292 C   0  0  0  0  0  0  0  0  0  0  0  0
    3.5533   -6.9997   -1.6216 C   0  0  0  0  0  0  0  0  0  0  0  0
    4.7170   -7.0795   -3.9109 C   0  0  3  0  0  0  0  0  0  0  0  0
    5.8773   -6.3993   -3.4660 O   0  0  0  0  0  0  0  0  0  0  0  0
    6.5615   -5.6829   -4.4035 C   0  0  0  0  0  0  0  0  0  0  0  0
    7.4043   -4.8602   -4.0889 O   0  0  0  0  0  0  0  0  0  0  0  0
    6.2159   -5.9288   -5.6903 O   0  0  0  0  0  0  0  0  0  0  0  0
    5.7551   -7.2135   -6.1055 C   0  0  3  0  0  0  0  0  0  0  0  0
    5.1775   -7.9955   -4.9841 C   0  0  0  0  0  0  0  0  0  0  0  0
    5.0848   -9.3325   -4.8604 C   0  0  0  0  0  0  0  0  0  0  0  0
    4.6016   -9.9258   -3.7160 O   0  3  0  0  0  0  0  0  0  0  0  0
    5.4622  -10.3455   -5.8630 C   0  0  0  0  0  0  0  0  0  0  0  0
    5.5112  -11.5170   -5.5190 O   0  0  0  0  0  0  0  0  0  0  0  0
    5.6056   -9.9155   -7.1110 O   0  0  0  0  0  0  0  0  0  0  0  0
    4.6885   -7.0303   -7.0133 O   0  0  0  0  0  0  0  0  0  0  0  0
    2.4599  -10.1482    0.5182 C   0  0  0  0  0  0  0  0  0  0  0  0
    2.4761   -9.8038    1.8691 C   0  0  0  0  0  0  0  0  0  0  0  0
    2.0412  -10.6508    2.8116 N   0  3  0  0  0  0  0  0  0  0  0  0
    2.0882  -10.2730    4.1039 F   0  0  0  0  0  0  0  0  0  0  0  0
    1.6111  -11.8662    2.5404 N   0  0  0  0  0  0  0  0  0  0  0  0
    1.6143  -12.3080    1.2850 C   0  0  0  0  0  0  0  0  0  0  0  0
    2.0124  -11.4776    0.2131 C   0  0  0  0  0  0  0  0  0  0  0  0
    1.9327  -12.0476   -1.0839 C   0  0  0  0  0  0  0  0  0  0  0  0
    1.5464  -13.3763   -1.3033 C   0  0  0  0  0  0  0  0  0  0  0  0
    1.4403  -13.8796   -2.6742 C   0  0  0  0  0  0  0  0  0  0  0  0
    1.8127  -13.1884   -3.6110 O   0  0  0  0  0  0  0  0  0  0  0  0
    0.8622  -15.2667   -2.8348 C   0  0  0  0  0  0  0  0  0  0  0  0
    1.0927  -15.9100   -3.8460 O   0  0  0  0  0  0  0  0  0  0  0  0
    0.0457  -15.7297   -1.6450 C   0  0  1  0  0  0  0  0  0  0  0  0
    0.7307  -15.4627   -0.3994 O   0  0  0  0  0  0  0  0  0  0  0  0
    1.1983  -14.1871   -0.2448 C   0  0  0  0  0  0  0  0  0  0  0  0
    1.2315  -13.6354    1.0367 C   0  0  0  0  0  0  0  0  0  0  0  0
    0.8295  -14.3937    2.0700 F   0  0  0  0  0  0  0  0  0  0  0  0
   -1.3664  -15.1845   -1.6657 C   0  0  1  0  0  0  0  0  0  0  0  0
   -2.1544  -15.5329   -2.8173 O   0  0  0  0  0  0  0  0  0  0  0  0
   -2.0636  -15.2454   -0.4096 O   0  0  0  0  0  0  0  0  0  0  0  0
   -1.8438  -14.0391   -0.9193 C   0  0  0  0  0  0  0  0  0  0  0  0
   -1.2918  -13.0328   -0.4796 O   0  0  0  0  0  0  0  0  0  0  0  0
    1.4495   -5.1814    1.6826 C   0  0  0  0  0  0  0  0  0  0  0  0
    2.1564   -5.1708    2.6809 O   0  0  0  0  0  0  0  0  0  0  0  0
    0.0685   -4.5526    1.6732 C   0  0  0  0  0  0  0  0  0  0  0  0
   -0.5956   -4.5331    2.6951 O   0  0  0  0  0  0  0  0  0  0  0  0
   -0.4915   -4.0518    0.3524 C   0  0  0  0  0  0  0  0  0  0  0  0
   -1.3013   -3.1508    0.2649 O   0  0  0  0  0  0  0  0  0  0  0  0
  1  2  1  0  0  0  0
  2  3  2  0  0  0  0
  3  4  1  0  0  0  0
  3 53  1  0  0  0  0
  4  5  1  0  0  0  0
  5  6  1  1  0  0  0
  5 49  1  0  0  0  0
  6  7  1  0  0  0  0
  7  8  2  0  0  0  0
  7 12  1  0  0  0  0
  8  9  1  0  0  0  0
  8 26  1  0  0  0  0
  9 10  1  0  0  0  0
 10 11  2  0  0  0  0
 10 21  1  0  0  0  0
 11 12  1  0  0  0  0
 11 13  1  0  0  0  0
 13 14  1  0  0  0  0
 13 19  1  0  0  0  0
 14 15  1  0  0  0  0
 15 16  2  0  0  0  0
 15 17  1  0  0  0  0
 17 18  1  0  0  0  0
 18 19  1  0  0  0  0
 18 25  1  0  0  0  0
 19 20  2  0  0  0  0
 20 21  1  0  0  0  0
 20 22  1  0  0  0  0
 22 23  2  0  0  0  0
 22 24  1  0  0  0  0
 26 27  2  0  0  0  0
 26 32  1  0  0  0  0
 27 28  1  0  0  0  0
 28 29  1  0  0  0  0
 28 30  2  0  0  0  0
 30 31  1  0  0  0  0
 31 32  2  0  0  0  0
 31 42  1  0  0  0  0
 32 33  1  0  0  0  0
 33 34  2  0  0  0  0
 34 35  1  0  0  0  0
 34 41  1  0  0  0  0
 35 36  2  0  0  0  0
 35 37  1  0  0  0  0
 37 38  2  0  0  0  0
 39 37  1  6  0  0  0
 39 40  1  0  0  0  0
 39 44  1  0  0  0  0
 40 41  1  0  0  0  0
 41 42  2  0  0  0  0
 42 43  1  0  0  0  0
 44 45  1  6  0  0  0
 44 46  1  0  0  0  0
 44 47  1  0  0  0  0
 46 47  1  0  0  0  0
 47 48  2  0  0  0  0
 49 50  2  0  0  0  0
 49 51  1  0  0  0  0
 51 52  2  0  0  0  0
 51 53  1  0  0  0  0
 53 54  2  0  0  0  0
M  CHG  2  21   1  28   1
M  END
$$$$