
 OpenBabel10232020483D

 94109  0  0  1  0  0  0  0  0999 V2000
    0.3716   -3.3117    1.4301 Cl  0  0  0  0  0  0  0  0  0  0  0  0
    1.8147   -3.5656    0.4517 C   0  0  3  0  0  0  0  0  0  0  0  0
    1.5271   -3.2539   -1.0104 C   0  0  0  0  0  0  0  0  0  0  0  0
    2.9340   -3.2965   -1.5561 C   0  0  3  0  0  0  0  0  0  0  0  0
    3.8308   -2.5560   -0.5325 C   0  0  3  0  0  0  0  0  0  0  0  0
    2.9564   -2.5938    0.7637 C   0  0  0  0  0  0  0  0  0  0  0  0
    5.3627   -2.9311   -0.3486 C   0  0  3  0  0  0  0  0  0  0  0  0
    6.3243   -2.6688   -1.5524 C   0  0  0  0  0  0  0  0  0  0  0  0
    6.6502   -3.8549   -2.5349 C   0  0  3  0  0  0  0  0  0  0  0  0
    8.1746   -4.2238   -2.6413 C   0  0  3  0  0  0  0  0  0  0  0  0
    8.3901   -5.3070   -3.5906 O   0  0  0  0  0  0  0  0  0  0  0  0
    8.2702   -4.9945   -4.9246 C   0  0  0  0  0  0  0  0  0  0  0  0
    8.4301   -3.7126   -5.3926 C   0  0  0  0  0  0  0  0  0  0  0  0
    8.8451   -2.6024   -4.4621 C   0  0  3  0  0  0  0  0  0  0  0  0
    9.1138   -3.0564   -3.0162 C   0  0  3  0  0  0  0  0  0  0  0  0
   10.4966   -3.4356   -2.9372 O   0  0  0  0  0  0  0  0  0  0  0  0
    9.9710   -1.9341   -5.0218 O   0  0  0  0  0  0  0  0  0  0  0  0
    8.1151   -3.4331   -6.7473 C   0  0  0  0  0  0  0  0  0  0  0  0
    7.5839   -4.3979   -7.6283 C   0  0  0  0  0  0  0  0  0  0  0  0
    7.5332   -5.7268   -7.1836 C   0  0  0  0  0  0  0  0  0  0  0  0
    7.9177   -5.9977   -5.8191 C   0  0  0  0  0  0  0  0  0  0  0  0
    7.8007   -7.2657   -5.3399 F   0  0  0  0  0  0  0  0  0  0  0  0
    7.0851   -6.6855   -8.0985 C   0  0  0  0  0  0  0  0  0  0  0  0
    7.1227   -8.3955   -7.7821 Cl  0  0  0  0  0  0  0  0  0  0  0  0
    6.5469   -6.3320   -9.3572 C   0  0  0  0  0  0  0  0  0  0  0  0
    6.3983   -5.0151   -9.8290 C   0  0  0  0  0  0  0  0  0  0  0  0
    7.0585   -4.0764   -8.9748 C   0  0  0  0  0  0  0  0  0  0  0  0
    7.3058   -2.4330   -9.5430 Cl  0  0  0  0  0  0  0  0  0  0  0  0
    5.6106   -4.6678  -11.1347 C   0  0  0  0  0  0  0  0  0  0  0  0
    4.9034   -3.4287  -11.2535 C   0  0  0  0  0  0  0  0  0  0  0  0
    4.1237   -2.8053  -12.4187 C   0  0  0  0  0  0  0  0  0  0  0  0
    4.3349   -3.7106  -13.5140 N   0  3  0  0  0  0  0  0  0  0  0  0
    4.9990   -4.9302  -13.4209 N   0  3  0  0  0  0  0  0  0  0  0  0
    5.4317   -5.4847  -12.2568 C   0  0  0  0  0  0  0  0  0  0  0  0
    5.5698   -6.9834  -12.2656 C   0  0  0  0  0  0  0  0  0  0  0  0
    5.3508   -5.7688  -14.9102 Cl  0  0  0  0  0  0  0  0  0  0  0  0
    3.8595   -3.4768  -14.7165 N   0  0  0  0  0  0  0  0  0  0  0  0
    3.2021   -2.3901  -15.0516 C   0  0  0  0  0  0  0  0  0  0  0  0
    2.8684   -1.3506  -14.1947 C   0  0  0  0  0  0  0  0  0  0  0  0
    3.2158   -1.4743  -12.8184 C   0  0  0  0  0  0  0  0  0  0  0  0
    2.6015   -0.2442  -11.7344 N   0  3  0  0  0  0  0  0  0  0  0  0
    2.8248   -0.1761  -10.3192 N   0  3  0  0  0  0  0  0  0  0  0  0
    3.8212   -1.2066   -9.4264 Cl  0  0  0  0  0  0  0  0  0  0  0  0
    2.2796    0.7826   -9.4720 C   0  0  0  0  0  0  0  0  0  0  0  0
    1.4656    1.8549   -9.8345 C   0  0  0  0  0  0  0  0  0  0  0  0
    1.1783    1.8634  -11.1654 C   0  0  0  0  0  0  0  0  0  0  0  0
    1.7120    0.8315  -12.1212 C   0  0  0  0  0  0  0  0  0  0  0  0
    1.2575    1.2098  -13.3925 N   0  0  0  0  0  0  0  0  0  0  0  0
    0.4355    2.9015  -11.5767 N   0  0  0  0  0  0  0  0  0  0  0  0
   -0.0403    3.9172  -10.8335 N   0  3  0  0  0  0  0  0  0  0  0  0
    0.1618    3.9522   -9.4767 C   0  0  0  0  0  0  0  0  0  0  0  0
    0.9532    2.8829   -8.9957 N   0  3  0  0  0  0  0  0  0  0  0  0
    1.2509    2.8419   -7.6626 N   0  0  0  0  0  0  0  0  0  0  0  0
    0.7968    3.7719   -6.7958 N   0  3  0  0  0  0  0  0  0  0  0  0
    1.1667    3.6768   -5.3394 C   0  0  0  0  0  0  0  0  0  0  0  0
    0.0209    4.7738   -7.2358 C   0  0  0  0  0  0  0  0  0  0  0  0
   -0.2980    4.8644   -8.5486 N   0  3  0  0  0  0  0  0  0  0  0  0
   -1.3589    6.1604   -8.9199 Cl  0  0  0  0  0  0  0  0  0  0  0  0
   -0.8216    5.1285  -11.7541 Cl  0  0  0  0  0  0  0  0  0  0  0  0
    2.3208   -0.2462  -14.8711 N   0  0  0  0  0  0  0  0  0  0  0  0
    5.7006   -5.0460   -2.2606 C   0  0  3  0  0  0  0  0  0  0  0  0
    5.5508   -5.3784   -0.7867 C   0  0  0  0  0  0  0  0  0  0  0  0
    5.5522   -4.3396    0.1431 C   0  0  0  0  0  0  0  0  0  0  0  0
    5.5515   -4.6217    1.5176 C   0  0  0  0  0  0  0  0  0  0  0  0
    5.1985   -5.8872    2.0026 C   0  0  0  0  0  0  0  0  0  0  0  0
    4.7699   -6.8229    1.0182 C   0  0  0  0  0  0  0  0  0  0  0  0
    5.1474   -6.6451   -0.3424 C   0  0  0  0  0  0  0  0  0  0  0  0
    5.0713   -7.7958   -1.3342 C   0  0  3  0  0  0  0  0  0  0  0  0
    4.6808   -7.2902   -2.7263 C   0  0  0  0  0  0  0  0  0  0  0  0
    5.7197   -6.2687   -3.1751 C   0  0  3  0  0  0  0  0  0  0  0  0
    5.3748   -5.8448   -4.4365 F   0  0  0  0  0  0  0  0  0  0  0  0
    4.1874   -8.9645   -0.8928 C   0  0  0  0  0  0  0  0  0  0  0  0
    3.1179   -8.5166    0.0804 C   0  0  0  0  0  0  0  0  0  0  0  0
    3.7718   -7.9409    1.3413 C   0  0  3  0  0  0  0  0  0  0  0  0
    2.4001   -7.3200    2.3304 Cl  0  0  0  0  0  0  0  0  0  0  0  0
    5.2019   -6.1833    3.4713 C   0  0  0  0  0  0  0  0  0  0  0  0
    5.4834   -7.4842    3.9301 C   0  0  0  0  0  0  0  0  0  0  0  0
    5.2841   -7.8846    5.2683 C   0  0  0  0  0  0  0  0  0  0  0  0
    5.2138   -9.3749    5.5739 C   0  0  3  0  0  0  0  0  0  0  0  0
    3.8519   -9.8967    5.0613 C   0  0  0  0  0  0  0  0  0  0  0  0
    3.6112  -11.3660    5.3730 C   0  0  0  0  0  0  0  0  0  0  0  0
    3.8001  -11.6920    6.8592 C   0  0  3  0  0  0  0  0  0  0  0  0
    5.1992  -11.2211    7.3258 C   0  0  3  0  0  0  0  0  0  0  0  0
    5.4201   -9.7012    7.0684 C   0  0  3  0  0  0  0  0  0  0  0  0
    4.5386   -8.7767    7.9308 C   0  0  0  0  0  0  0  0  0  0  0  0
    4.8666   -7.2861    7.7079 C   0  0  3  0  0  0  0  0  0  0  0  0
    4.9896   -6.9213    6.2397 C   0  0  0  0  0  0  0  0  0  0  0  0
    4.8201   -5.5925    5.8249 C   0  0  0  0  0  0  0  0  0  0  0  0
    4.8897   -5.2452    4.4686 C   0  0  0  0  0  0  0  0  0  0  0  0
    4.6180   -3.9692    4.1465 F   0  0  0  0  0  0  0  0  0  0  0  0
    6.1409   -6.8920    8.4661 C   0  0  0  0  0  0  0  0  0  0  0  0
    5.4979  -11.6022    8.7791 C   0  0  0  0  0  0  0  0  0  0  0  0
    3.5657  -13.1910    7.0731 C   0  0  0  0  0  0  0  0  0  0  0  0
    3.1652   -4.6266   -1.6154 F   0  0  0  0  0  0  0  0  0  0  0  0
  1  2  1  0  0  0  0
  2  3  1  0  0  0  0
  2  6  1  0  0  0  0
  3  4  1  0  0  0  0
  4  5  1  0  0  0  0
  4 94  1  0  0  0  0
  5  6  1  0  0  0  0
  5  7  1  0  0  0  0
  7  8  1  0  0  0  0
  7 63  1  0  0  0  0
  8  9  1  0  0  0  0
  9 10  1  0  0  0  0
  9 61  1  0  0  0  0
 10 11  1  0  0  0  0
 10 15  1  0  0  0  0
 11 12  1  0  0  0  0
 12 13  2  0  0  0  0
 12 21  1  0  0  0  0
 13 14  1  0  0  0  0
 13 18  1  0  0  0  0
 14 15  1  0  0  0  0
 14 17  1  0  0  0  0
 15 16  1  0  0  0  0
 18 19  2  0  0  0  0
 19 20  1  0  0  0  0
 19 27  1  0  0  0  0
 20 21  2  0  0  0  0
 20 23  1  0  0  0  0
 21 22  1  0  0  0  0
 23 24  1  0  0  0  0
 23 25  2  0  0  0  0
 25 26  1  0  0  0  0
 26 27  2  0  0  0  0
 26 29  1  0  0  0  0
 27 28  1  0  0  0  0
 29 30  2  0  0  0  0
 29 34  1  0  0  0  0
 30 31  1  0  0  0  0
 31 32  2  0  0  0  0
 31 40  1  0  0  0  0
 32 33  1  0  0  0  0
 32 37  1  0  0  0  0
 33 34  2  0  0  0  0
 33 36  1  0  0  0  0
 34 35  1  0  0  0  0
 37 38  2  0  0  0  0
 38 39  1  0  0  0  0
 39 40  2  0  0  0  0
 39 60  1  0  0  0  0
 40 41  1  0  0  0  0
 41 42  2  0  0  0  0
 41 47  1  0  0  0  0
 42 43  1  0  0  0  0
 42 44  1  0  0  0  0
 44 45  2  0  0  0  0
 45 46  1  0  0  0  0
 45 52  1  0  0  0  0
 46 47  2  0  0  0  0
 46 49  1  0  0  0  0
 47 48  1  0  0  0  0
 49 50  2  0  0  0  0
 50 51  1  0  0  0  0
 50 59  1  0  0  0  0
 51 52  2  0  0  0  0
 51 57  1  0  0  0  0
 52 53  1  0  0  0  0
 53 54  2  0  0  0  0
 54 55  1  0  0  0  0
 54 56  1  0  0  0  0
 56 57  2  0  0  0  0
 57 58  1  0  0  0  0
 61 62  1  0  0  0  0
 61 70  1  0  0  0  0
 62 63  2  0  0  0  0
 62 67  1  0  0  0  0
 63 64  1  0  0  0  0
 64 65  2  0  0  0  0
 65 66  1  0  0  0  0
 65 76  1  0  0  0  0
 66 67  2  0  0  0  0
 66 74  1  0  0  0  0
 67 68  1  0  0  0  0
 68 69  1  0  0  0  0
 68 72  1  0  0  0  0
 69 70  1  0  0  0  0
 70 71  1  0  0  0  0
 72 73  1  0  0  0  0
 73 74  1  0  0  0  0
 74 75  1  0  0  0  0
 76 77  2  0  0  0  0
 76 89  1  0  0  0  0
 77 78  1  0  0  0  0
 78 79  1  0  0  0  0
 78 87  2  0  0  0  0
 79 80  1  0  0  0  0
 79 84  1  0  0  0  0
 80 81  1  0  0  0  0
 81 82  1  0  0  0  0
 82 83  1  0  0  0  0
 82 93  1  0  0  0  0
 83 84  1  0  0  0  0
 83 92  1  0  0  0  0
 84 85  1  0  0  0  0
 85 86  1  0  0  0  0
 86 87  1  0  0  0  0
 86 91  1  0  0  0  0
 87 88  1  0  0  0  0
 88 89  2  0  0  0  0
 89 90  1  0  0  0  0
M  CHG  8  32   1  33   1  41   1  42   1  50   1  52   1  54   1  57   1
M  END
$$$$