
 OpenBabel09202016343D

 49 56  0  0  1  0  0  0  0  0999 V2000
    0.6796   -3.2423    0.8753 O   0  0  0  0  0  0  0  0  0  0  0  0
   -0.3096   -2.2847    0.4965 C   0  0  0  0  0  0  0  0  0  0  0  0
    0.1903   -1.1721   -0.4536 C   0  0  2  0  0  0  0  0  0  0  0  0
    0.6678   -1.7131   -1.7027 O   0  0  0  0  0  0  0  0  0  0  0  0
    1.9536   -2.1905   -1.6794 C   0  0  0  0  0  0  0  0  0  0  0  0
    2.3007   -3.0394   -2.7246 C   0  0  0  0  0  0  0  0  0  0  0  0
    3.5288   -3.7170   -2.7103 C   0  0  0  0  0  0  0  0  0  0  0  0
    3.9014   -4.5295   -3.7828 C   0  0  0  0  0  0  0  0  0  0  0  0
    5.1131   -5.1935   -3.7140 C   0  0  0  0  0  0  0  0  0  0  0  0
    5.9119   -5.1822   -2.6335 N   0  0  0  0  0  0  0  0  0  0  0  0
    5.5180   -4.4315   -1.5671 C   0  0  0  0  0  0  0  0  0  0  0  0
    4.3850   -3.5944   -1.5935 C   0  0  0  0  0  0  0  0  0  0  0  0
    4.0501   -2.6563   -0.5891 C   0  0  0  0  0  0  0  0  0  0  0  0
    2.8611   -1.9119   -0.6557 C   0  0  0  0  0  0  0  0  0  0  0  0
    2.5312   -0.9162    0.4251 C   0  0  2  0  0  0  0  0  0  0  0  0
    1.2101   -0.1964    0.1302 C   0  0  2  0  0  0  0  0  0  0  0  0
    0.7080    0.4561    1.3005 O   0  0  0  0  0  0  0  0  0  0  0  0
    3.5454    0.0929    0.5451 O   0  0  0  0  0  0  0  0  0  0  0  0
    6.3678   -4.6091   -0.3678 C   0  0  0  0  0  0  0  0  0  0  0  0
    6.0861   -5.5159    0.6133 C   0  0  0  0  0  0  0  0  0  0  0  0
    4.9355   -6.2882    0.6191 O   0  0  0  0  0  0  0  0  0  0  0  0
    4.4056   -6.8656    1.8543 C   0  0  1  0  0  0  0  0  0  0  0  0
    5.3786   -7.3382    2.7923 O   0  0  0  0  0  0  0  0  0  0  0  0
    4.9188   -7.4127    4.1249 C   0  0  1  0  0  0  0  0  0  0  0  0
    5.9970   -7.9078    4.9194 O   0  0  0  0  0  0  0  0  0  0  0  0
    4.5637   -6.0192    4.6793 C   0  0  2  0  0  0  0  0  0  0  0  0
    3.7344   -5.1832    3.6911 C   0  0  2  0  0  0  0  0  0  0  0  0
    3.2795   -5.9813    2.4658 C   0  0  3  0  0  0  0  0  0  0  0  0
    2.2126   -6.8493    2.9146 O   0  0  0  0  0  0  0  0  0  0  0  0
    4.4477   -4.0072    3.2915 O   0  0  0  0  0  0  0  0  0  0  0  0
    5.7561   -5.2599    5.0035 O   0  0  0  0  0  0  0  0  0  0  0  0
    7.1116   -5.7750    1.6593 C   0  0  0  0  0  0  0  0  0  0  0  0
    8.4146   -5.1044    1.4344 C   0  0  0  0  0  0  0  0  0  0  0  0
    8.5426   -4.0921    0.4967 C   0  0  0  0  0  0  0  0  0  0  0  0
    7.5030   -3.8007   -0.3675 O   0  0  0  0  0  0  0  0  0  0  0  0
    9.6753   -3.3695    0.3151 N   0  0  0  0  0  0  0  0  0  0  0  0
   10.7656   -3.6839    1.0471 C   0  0  0  0  0  0  0  0  0  0  0  0
   11.8721   -2.9309    0.8053 O   0  0  0  0  0  0  0  0  0  0  0  0
   10.7151   -4.7319    1.9437 C   0  0  0  0  0  0  0  0  0  0  0  0
    9.5581   -5.4455    2.1557 C   0  0  0  0  0  0  0  0  0  0  0  0
    9.7731   -6.4332    3.0891 N   0  0  0  0  0  0  0  0  0  0  0  0
   11.0584   -6.3104    3.3837 C   0  0  0  0  0  0  0  0  0  0  0  0
   11.6878   -5.2677    2.7351 O   0  0  0  0  0  0  0  0  0  0  0  0
   11.8868   -7.1354    4.2692 C   0  0  0  0  0  0  0  0  0  0  0  0
   11.3599   -8.2437    4.9323 C   0  0  0  0  0  0  0  0  0  0  0  0
   12.1978   -8.9955    5.7566 C   0  0  0  0  0  0  0  0  0  0  0  0
   13.5298   -8.6231    5.8938 C   0  0  0  0  0  0  0  0  0  0  0  0
   13.9731   -7.5123    5.1975 C   0  0  0  0  0  0  0  0  0  0  0  0
   13.1870   -6.7663    4.3935 N   0  0  0  0  0  0  0  0  0  0  0  0
  1  2  1  0  0  0  0
  3  4  1  0  0  0  0
  3 16  1  0  0  0  0
  3  2  1  1  0  0  0
  4  5  1  0  0  0  0
  5  6  2  0  0  0  0
  5 14  1  0  0  0  0
  6  7  1  0  0  0  0
  7  8  2  0  0  0  0
  7 12  1  0  0  0  0
  8  9  1  0  0  0  0
  9 10  2  0  0  0  0
 10 11  1  0  0  0  0
 11 12  2  0  0  0  0
 11 19  1  0  0  0  0
 12 13  1  0  0  0  0
 13 14  2  0  0  0  0
 14 15  1  0  0  0  0
 15 16  1  0  0  0  0
 15 18  1  6  0  0  0
 16 17  1  1  0  0  0
 19 20  2  0  0  0  0
 19 35  1  0  0  0  0
 20 21  1  0  0  0  0
 20 32  1  0  0  0  0
 22 21  1  6  0  0  0
 22 23  1  0  0  0  0
 22 28  1  0  0  0  0
 23 24  1  0  0  0  0
 24 26  1  0  0  0  0
 24 25  1  1  0  0  0
 26 27  1  0  0  0  0
 26 31  1  6  0  0  0
 27 28  1  0  0  0  0
 27 30  1  6  0  0  0
 28 29  1  0  0  0  0
 32 33  1  0  0  0  0
 33 34  2  0  0  0  0
 33 40  1  0  0  0  0
 34 35  1  0  0  0  0
 34 36  1  0  0  0  0
 36 37  2  0  0  0  0
 37 38  1  0  0  0  0
 37 39  1  0  0  0  0
 39 40  2  0  0  0  0
 39 43  1  0  0  0  0
 40 41  1  0  0  0  0
 41 42  2  0  0  0  0
 42 43  1  0  0  0  0
 42 44  1  0  0  0  0
 44 45  2  0  0  0  0
 44 49  1  0  0  0  0
 45 46  1  0  0  0  0
 46 47  2  0  0  0  0
 47 48  1  0  0  0  0
 48 49  2  0  0  0  0
M  END
$$$$