
 OpenBabel11212023413D

 54 62  0  0  1  0  0  0  0  0999 V2000
    6.3521    5.5919    4.0942 O   0  0  0  0  0  0  0  0  0  0  0  0
    5.9578    5.4217    2.7924 C   0  0  0  0  0  0  0  0  0  0  0  0
    5.0716    4.4977    2.3978 C   0  0  0  0  0  0  0  0  0  0  0  0
    4.5185    3.5720    3.2729 O   0  0  0  0  0  0  0  0  0  0  0  0
    3.1157    3.3845    3.1071 C   0  0  2  0  0  0  0  0  0  0  0  0
    2.6437    2.2157    3.8570 O   0  0  0  0  0  0  0  0  0  0  0  0
    2.7909    2.1859    5.2358 C   0  0  0  0  0  0  0  0  0  0  0  0
    2.9280    1.0168    5.9111 C   0  0  0  0  0  0  0  0  0  0  0  0
    3.1289    0.9834    7.3060 O   0  0  0  0  0  0  0  0  0  0  0  0
    3.2335    2.1842    8.0345 C   0  0  0  0  0  0  0  0  0  0  0  0
    3.0056    3.3728    7.4459 C   0  0  0  0  0  0  0  0  0  0  0  0
    2.7104    3.4995    5.9806 C   0  0  0  0  0  0  0  0  0  0  0  0
    3.0806    4.6734    8.2023 C   0  0  3  0  0  0  0  0  0  0  0  0
    1.7861    5.2399    8.2154 O   0  0  0  0  0  0  0  0  0  0  0  0
    1.6017    6.3752    8.9504 C   0  0  0  0  0  0  0  0  0  0  0  0
    0.5992    7.0546    8.8040 O   0  0  0  0  0  0  0  0  0  0  0  0
    2.5810    6.6951    9.8420 O   0  0  0  0  0  0  0  0  0  0  0  0
    3.5164    5.8123   10.2411 C   0  0  0  0  0  0  0  0  0  0  0  0
    4.6513    6.4013   11.3030 S   0  0  0  0  0  0  0  0  0  0  0  0
    3.4621    4.4818    9.6169 C   0  0  0  0  0  0  0  0  0  0  0  0
    3.6851    3.2650   10.1662 C   0  0  0  0  0  0  0  0  0  0  0  0
    3.5687    2.1158    9.3752 O   0  3  0  0  0  0  0  0  0  0  0  0
    4.0187    2.9944   11.5935 C   0  0  0  0  0  0  0  0  0  0  0  0
    3.6433    1.7348   12.1847 O   0  0  0  0  0  0  0  0  0  0  0  0
    5.0283    2.0296   11.9313 O   0  0  0  0  0  0  0  0  0  0  0  0
    2.8413   -0.3408    5.2693 C   0  0  0  0  0  0  0  0  0  0  0  0
    1.5879   -0.9522    5.1570 C   0  0  0  0  0  0  0  0  0  0  0  0
    1.4567   -2.1740    4.6166 N   0  3  0  0  0  0  0  0  0  0  0  0
    0.2438   -2.7620    4.5931 F   0  0  0  0  0  0  0  0  0  0  0  0
    2.4742   -2.8450    4.1182 N   0  0  0  0  0  0  0  0  0  0  0  0
    3.6988   -2.3232    4.1635 C   0  0  0  0  0  0  0  0  0  0  0  0
    3.9506   -1.0703    4.7689 C   0  0  0  0  0  0  0  0  0  0  0  0
    5.2951   -0.6452    4.8459 C   0  0  0  0  0  0  0  0  0  0  0  0
    6.3411   -1.4266    4.3184 C   0  0  0  0  0  0  0  0  0  0  0  0
    7.7323   -1.0153    4.5165 C   0  0  0  0  0  0  0  0  0  0  0  0
    7.9885   -0.0553    5.2249 O   0  0  0  0  0  0  0  0  0  0  0  0
    8.8060   -1.8125    3.8062 C   0  0  0  0  0  0  0  0  0  0  0  0
    9.9877   -1.5682    3.9920 O   0  0  0  0  0  0  0  0  0  0  0  0
    8.2857   -2.7457    2.7363 C   0  0  1  0  0  0  0  0  0  0  0  0
    7.0434   -3.3884    3.0855 O   0  0  0  0  0  0  0  0  0  0  0  0
    6.0798   -2.6068    3.6514 C   0  0  0  0  0  0  0  0  0  0  0  0
    4.7578   -3.0472    3.6039 C   0  0  0  0  0  0  0  0  0  0  0  0
    4.4844   -4.2158    3.0003 F   0  0  0  0  0  0  0  0  0  0  0  0
    8.1851   -2.0645    1.4001 C   0  0  1  0  0  0  0  0  0  0  0  0
    7.5533   -2.8237    0.3445 O   0  0  0  0  0  0  0  0  0  0  0  0
    7.8167   -0.6863    1.4647 O   0  0  0  0  0  0  0  0  0  0  0  0
    9.0451   -0.9595    0.9533 C   0  0  0  0  0  0  0  0  0  0  0  0
    9.4772   -0.6996   -0.1390 O   0  0  0  0  0  0  0  0  0  0  0  0
    2.6509    3.1125    1.6818 C   0  0  0  0  0  0  0  0  0  0  0  0
    1.5489    2.6688    1.3891 O   0  0  0  0  0  0  0  0  0  0  0  0
    3.6745    3.4414    0.6273 C   0  0  0  0  0  0  0  0  0  0  0  0
    3.6869    2.8287   -0.4261 O   0  0  0  0  0  0  0  0  0  0  0  0
    4.7318    4.4656    0.9483 C   0  0  0  0  0  0  0  0  0  0  0  0
    5.2054    5.1998    0.1017 O   0  0  0  0  0  0  0  0  0  0  0  0
  1  2  1  0  0  0  0
  2  3  2  0  0  0  0
  3  4  1  0  0  0  0
  3 53  1  0  0  0  0
  4  5  1  0  0  0  0
  5  6  1  1  0  0  0
  5 49  1  0  0  0  0
  6  7  1  0  0  0  0
  7  8  2  0  0  0  0
  7 12  1  0  0  0  0
  8  9  1  0  0  0  0
  8 26  1  0  0  0  0
  9 10  1  0  0  0  0
 10 11  2  0  0  0  0
 10 22  1  0  0  0  0
 11 12  1  0  0  0  0
 11 13  1  0  0  0  0
 13 14  1  0  0  0  0
 13 20  1  0  0  0  0
 14 15  1  0  0  0  0
 15 16  2  0  0  0  0
 15 17  1  0  0  0  0
 17 18  1  0  0  0  0
 18 19  2  0  0  0  0
 18 20  1  0  0  0  0
 20 21  2  0  0  0  0
 21 22  1  0  0  0  0
 21 23  1  0  0  0  0
 23 24  1  0  0  0  0
 23 25  1  0  0  0  0
 24 25  1  0  0  0  0
 26 27  2  0  0  0  0
 26 32  1  0  0  0  0
 27 28  1  0  0  0  0
 28 29  1  0  0  0  0
 28 30  2  0  0  0  0
 30 31  1  0  0  0  0
 31 32  2  0  0  0  0
 31 42  1  0  0  0  0
 32 33  1  0  0  0  0
 33 34  2  0  0  0  0
 34 35  1  0  0  0  0
 34 41  1  0  0  0  0
 35 36  2  0  0  0  0
 35 37  1  0  0  0  0
 37 38  2  0  0  0  0
 39 37  1  1  0  0  0
 39 40  1  0  0  0  0
 39 44  1  0  0  0  0
 40 41  1  0  0  0  0
 41 42  2  0  0  0  0
 42 43  1  0  0  0  0
 44 45  1  6  0  0  0
 44 46  1  0  0  0  0
 44 47  1  0  0  0  0
 46 47  1  0  0  0  0
 47 48  2  0  0  0  0
 49 50  2  0  0  0  0
 49 51  1  0  0  0  0
 51 52  2  0  0  0  0
 51 53  1  0  0  0  0
 53 54  2  0  0  0  0
M  CHG  2  22   1  28   1
M  END
$$$$