
 OpenBabel09212009083D

 48 55  0  0  1  0  0  0  0  0999 V2000
    6.3262   -6.1488    2.4130 O   0  0  0  0  0  0  0  0  0  0  0  0
    5.3264   -7.1690    2.3812 C   0  0  0  0  0  0  0  0  0  0  0  0
    3.9419   -6.5269    2.5005 C   0  0  2  0  0  0  0  0  0  0  0  0
    3.7869   -5.6061    1.4156 O   0  0  0  0  0  0  0  0  0  0  0  0
    2.5715   -4.8441    1.5210 C   0  0  2  0  0  0  0  0  0  0  0  0
    2.2648   -4.2265    0.2727 O   0  0  0  0  0  0  0  0  0  0  0  0
    2.0532   -5.0762   -0.8086 C   0  0  0  0  0  0  0  0  0  0  0  0
    2.3319   -4.6852   -2.0692 C   0  0  0  0  0  0  0  0  0  0  0  0
    2.1691   -5.4886   -3.1883 O   0  0  0  0  0  0  0  0  0  0  0  0
    1.8197   -6.8104   -3.0155 C   0  0  0  0  0  0  0  0  0  0  0  0
    1.4570   -7.3185   -1.7742 C   0  0  0  0  0  0  0  0  0  0  0  0
    1.4524   -6.4321   -0.5722 C   0  0  0  0  0  0  0  0  0  0  0  0
    1.1459   -8.6806   -1.6986 C   0  0  0  0  0  0  0  0  0  0  0  0
    0.7637   -9.2777   -0.4900 N   0  0  0  0  0  0  0  0  0  0  0  0
    0.6051  -10.6167   -0.3085 C   0  0  0  0  0  0  0  0  0  0  0  0
    0.3328  -11.0771    0.7932 O   0  0  0  0  0  0  0  0  0  0  0  0
    0.8039  -11.4120   -1.3887 N   0  0  0  0  0  0  0  0  0  0  0  0
    0.8631  -10.9256   -2.7483 C   0  0  0  0  0  0  0  0  0  0  0  0
    1.2279   -9.4843   -2.8274 C   0  0  0  0  0  0  0  0  0  0  0  0
    1.5895   -8.8620   -4.0028 C   0  0  0  0  0  0  0  0  0  0  0  0
    1.8865   -7.5606   -4.1374 N   0  0  0  0  0  0  0  0  0  0  0  0
    1.6703   -9.5566   -5.1648 O   0  0  0  0  0  0  0  0  0  0  0  0
    2.8349   -3.3365   -2.3818 C   0  0  0  0  0  0  0  0  0  0  0  0
    1.8601   -2.4318   -2.6577 N   0  0  0  0  0  0  0  0  0  0  0  0
    2.2449   -1.1683   -2.9178 C   0  0  0  0  0  0  0  0  0  0  0  0
    3.5630   -0.7485   -2.9178 C   0  0  0  0  0  0  0  0  0  0  0  0
    4.5687   -1.6795   -2.6419 C   0  0  0  0  0  0  0  0  0  0  0  0
    4.2129   -3.0224   -2.3779 C   0  0  0  0  0  0  0  0  0  0  0  0
    5.2476   -3.9541   -2.1399 C   0  0  0  0  0  0  0  0  0  0  0  0
    6.5861   -3.5492   -2.1401 C   0  0  0  0  0  0  0  0  0  0  0  0
    6.9291   -2.2172   -2.3441 C   0  0  0  0  0  0  0  0  0  0  0  0
    5.9220   -1.2919   -2.6189 C   0  0  0  0  0  0  0  0  0  0  0  0
    8.2047   -1.7222   -2.2960 O   0  0  0  0  0  0  0  0  0  0  0  0
    9.2027   -2.5769   -1.7151 C   0  0  2  0  0  0  0  0  0  0  0  0
    9.0544   -4.0268   -2.0982 C   0  0  0  0  0  0  0  0  0  0  0  0
    9.9506   -4.7507   -2.5080 O   0  0  0  0  0  0  0  0  0  0  0  0
    7.6465   -4.5426   -1.9291 C   0  0  0  0  0  0  0  0  0  0  0  0
    7.4177   -5.7013   -1.6352 O   0  0  0  0  0  0  0  0  0  0  0  0
    9.2464   -2.4113   -0.2133 C   0  0  1  0  0  0  0  0  0  0  0  0
    8.0575   -2.7543    0.5153 O   0  0  0  0  0  0  0  0  0  0  0  0
   10.4562   -2.8569    0.4046 O   0  0  0  0  0  0  0  0  0  0  0  0
   10.2005   -1.4457    0.4427 C   0  0  0  0  0  0  0  0  0  0  0  0
    2.7684   -3.8213    2.6361 C   0  0  0  0  0  0  0  0  0  0  0  0
    2.3171   -2.6826    2.6575 O   0  0  0  0  0  0  0  0  0  0  0  0
    3.4948   -4.4056    3.8277 C   0  0  0  0  0  0  0  0  0  0  0  0
    3.8051   -3.6985    4.7650 O   0  0  0  0  0  0  0  0  0  0  0  0
    3.7887   -5.8904    3.8732 C   0  0  0  0  0  0  0  0  0  0  0  0
    3.7759   -6.5093    4.9178 O   0  0  0  0  0  0  0  0  0  0  0  0
  1  2  1  0  0  0  0
  3  4  1  0  0  0  0
  3 47  1  0  0  0  0
  3  2  1  1  0  0  0
  4  5  1  0  0  0  0
  5  6  1  6  0  0  0
  5 43  1  0  0  0  0
  6  7  1  0  0  0  0
  7  8  2  0  0  0  0
  7 12  1  0  0  0  0
  8  9  1  0  0  0  0
  8 23  1  0  0  0  0
  9 10  1  0  0  0  0
 10 11  2  0  0  0  0
 10 21  1  0  0  0  0
 11 12  1  0  0  0  0
 11 13  1  0  0  0  0
 13 14  1  0  0  0  0
 13 19  2  0  0  0  0
 14 15  1  0  0  0  0
 15 16  2  0  0  0  0
 15 17  1  0  0  0  0
 17 18  1  0  0  0  0
 18 19  1  0  0  0  0
 19 20  1  0  0  0  0
 20 21  2  0  0  0  0
 20 22  1  0  0  0  0
 23 24  2  0  0  0  0
 23 28  1  0  0  0  0
 24 25  1  0  0  0  0
 25 26  2  0  0  0  0
 26 27  1  0  0  0  0
 27 28  2  0  0  0  0
 27 32  1  0  0  0  0
 28 29  1  0  0  0  0
 29 30  2  0  0  0  0
 30 31  1  0  0  0  0
 30 37  1  0  0  0  0
 31 32  2  0  0  0  0
 31 33  1  0  0  0  0
 34 33  1  1  0  0  0
 34 35  1  0  0  0  0
 34 39  1  0  0  0  0
 35 36  2  0  0  0  0
 35 37  1  0  0  0  0
 37 38  2  0  0  0  0
 39 40  1  1  0  0  0
 39 41  1  0  0  0  0
 39 42  1  0  0  0  0
 41 42  1  0  0  0  0
 43 44  2  0  0  0  0
 43 45  1  0  0  0  0
 45 46  2  0  0  0  0
 45 47  1  0  0  0  0
 47 48  2  0  0  0  0
M  END
$$$$