
 OpenBabel11212014593D

 53 61  0  0  1  0  0  0  0  0999 V2000
   -0.3339    2.6213   -3.9674 O   0  0  0  0  0  0  0  0  0  0  0  0
   -0.1233    2.1535   -2.6940 C   0  0  0  0  0  0  0  0  0  0  0  0
    0.4012    0.9486   -2.4342 C   0  0  0  0  0  0  0  0  0  0  0  0
    0.7029    0.0635   -3.4542 O   0  0  0  0  0  0  0  0  0  0  0  0
    1.9230   -0.6461   -3.2826 C   0  0  2  0  0  0  0  0  0  0  0  0
    2.1608   -1.5782   -4.3693 O   0  0  0  0  0  0  0  0  0  0  0  0
    2.1837   -1.1356   -5.6839 C   0  0  0  0  0  0  0  0  0  0  0  0
    2.2520   -2.0146   -6.7153 C   0  0  0  0  0  0  0  0  0  0  0  0
    2.2348   -1.5793   -8.0461 O   0  0  0  0  0  0  0  0  0  0  0  0
    2.3845   -0.2335   -8.3555 C   0  0  0  0  0  0  0  0  0  0  0  0
    2.3889    0.7049   -7.3949 C   0  0  0  0  0  0  0  0  0  0  0  0
    2.2090    0.3547   -5.9473 C   0  0  0  0  0  0  0  0  0  0  0  0
    2.5591    2.1666   -7.7116 C   0  0  3  0  0  0  0  0  0  0  0  0
    3.7871    2.5810   -7.1399 O   0  0  0  0  0  0  0  0  0  0  0  0
    4.2236    3.8453   -7.3924 C   0  0  0  0  0  0  0  0  0  0  0  0
    5.1195    4.3463   -6.7333 O   0  0  0  0  0  0  0  0  0  0  0  0
    3.6195    4.4982   -8.4143 O   0  0  0  0  0  0  0  0  0  0  0  0
    2.8417    3.8576   -9.4179 C   0  0  3  0  0  0  0  0  0  0  0  0
    2.6742    2.4055   -9.1685 C   0  0  0  0  0  0  0  0  0  0  0  0
    2.6491    1.4141  -10.0858 C   0  0  0  0  0  0  0  0  0  0  0  0
    2.5303    0.0960   -9.6838 O   0  3  0  0  0  0  0  0  0  0  0  0
    2.7603    1.6256  -11.5476 C   0  0  0  0  0  0  0  0  0  0  0  0
    4.0281    1.6076  -12.2048 O   0  0  0  0  0  0  0  0  0  0  0  0
    3.0991    0.5277  -12.4104 O   0  0  0  0  0  0  0  0  0  0  0  0
    1.5314    4.3868   -9.3965 O   0  0  0  0  0  0  0  0  0  0  0  0
    2.3725   -3.5072   -6.5652 C   0  0  0  0  0  0  0  0  0  0  0  0
    1.7403   -4.0391   -5.5083 N   0  0  0  0  0  0  0  0  0  0  0  0
    1.8787   -5.3236   -5.2731 N   0  3  0  0  0  0  0  0  0  0  0  0
    1.3004   -5.8455   -4.1042 N   0  0  0  0  0  0  0  0  0  0  0  0
    2.5596   -6.1467   -6.0384 N   0  0  0  0  0  0  0  0  0  0  0  0
    3.2142   -5.6628   -7.0890 C   0  0  0  0  0  0  0  0  0  0  0  0
    3.1592   -4.3066   -7.4148 C   0  0  0  0  0  0  0  0  0  0  0  0
    3.9451   -3.8529   -8.5010 C   0  0  0  0  0  0  0  0  0  0  0  0
    4.7972   -4.7089   -9.2028 C   0  0  0  0  0  0  0  0  0  0  0  0
    4.8378   -6.0506   -8.8951 C   0  0  0  0  0  0  0  0  0  0  0  0
    4.0302   -6.5164   -7.8493 C   0  0  0  0  0  0  0  0  0  0  0  0
    5.6608   -6.9503   -9.5063 O   0  0  0  0  0  0  0  0  0  0  0  0
    6.2688   -6.5525  -10.7503 C   0  0  2  0  0  0  0  0  0  0  0  0
    6.6686   -5.0943  -10.8597 C   0  0  0  0  0  0  0  0  0  0  0  0
    7.6350   -4.6691  -11.4725 O   0  0  0  0  0  0  0  0  0  0  0  0
    5.7097   -4.1393  -10.1931 C   0  0  0  0  0  0  0  0  0  0  0  0
    5.6912   -2.9372  -10.4185 O   0  0  0  0  0  0  0  0  0  0  0  0
    5.3703   -6.9188  -11.8868 C   0  0  1  0  0  0  0  0  0  0  0  0
    4.0459   -6.3185  -11.8809 O   0  0  0  0  0  0  0  0  0  0  0  0
    6.0028   -7.0088  -13.1606 O   0  0  0  0  0  0  0  0  0  0  0  0
    5.5042   -8.1496  -12.6570 C   0  0  0  0  0  0  0  0  0  0  0  0
    4.6019   -8.8621  -13.0744 O   0  0  0  0  0  0  0  0  0  0  0  0
    1.8707   -1.4796   -2.0132 C   0  0  0  0  0  0  0  0  0  0  0  0
    2.1466   -2.6720   -1.9416 O   0  0  0  0  0  0  0  0  0  0  0  0
    1.4198   -0.6873   -0.8084 C   0  0  0  0  0  0  0  0  0  0  0  0
    1.7694   -1.0401    0.3055 O   0  0  0  0  0  0  0  0  0  0  0  0
    0.5804    0.5599   -1.0066 C   0  0  0  0  0  0  0  0  0  0  0  0
    0.1090    1.1791   -0.0694 O   0  0  0  0  0  0  0  0  0  0  0  0
  1  2  1  0  0  0  0
  2  3  2  0  0  0  0
  3  4  1  0  0  0  0
  3 52  1  0  0  0  0
  4  5  1  0  0  0  0
  5  6  1  6  0  0  0
  5 48  1  0  0  0  0
  6  7  1  0  0  0  0
  7  8  2  0  0  0  0
  7 12  1  0  0  0  0
  8  9  1  0  0  0  0
  8 26  1  0  0  0  0
  9 10  1  0  0  0  0
 10 11  2  0  0  0  0
 10 21  1  0  0  0  0
 11 12  1  0  0  0  0
 11 13  1  0  0  0  0
 13 14  1  0  0  0  0
 13 19  1  0  0  0  0
 14 15  1  0  0  0  0
 15 16  2  0  0  0  0
 15 17  1  0  0  0  0
 17 18  1  0  0  0  0
 18 19  1  0  0  0  0
 18 25  1  0  0  0  0
 19 20  2  0  0  0  0
 20 21  1  0  0  0  0
 20 22  1  0  0  0  0
 22 23  1  0  0  0  0
 22 24  1  0  0  0  0
 23 24  1  0  0  0  0
 26 27  2  0  0  0  0
 26 32  1  0  0  0  0
 27 28  1  0  0  0  0
 28 29  1  0  0  0  0
 28 30  2  0  0  0  0
 30 31  1  0  0  0  0
 31 32  2  0  0  0  0
 31 36  1  0  0  0  0
 32 33  1  0  0  0  0
 33 34  2  0  0  0  0
 34 35  1  0  0  0  0
 34 41  1  0  0  0  0
 35 36  2  0  0  0  0
 35 37  1  0  0  0  0
 38 37  1  1  0  0  0
 38 39  1  0  0  0  0
 38 43  1  0  0  0  0
 39 40  2  0  0  0  0
 39 41  1  0  0  0  0
 41 42  2  0  0  0  0
 43 44  1  1  0  0  0
 43 45  1  0  0  0  0
 43 46  1  0  0  0  0
 45 46  1  0  0  0  0
 46 47  2  0  0  0  0
 48 49  2  0  0  0  0
 48 50  1  0  0  0  0
 50 51  2  0  0  0  0
 50 52  1  0  0  0  0
 52 53  2  0  0  0  0
M  CHG  2  21   1  28   1
M  END
$$$$