
 OpenBabel11232003043D

 54 62  0  0  1  0  0  0  0  0999 V2000
   -1.9198   -2.3647    6.0449 O   0  0  0  0  0  0  0  0  0  0  0  0
   -1.3362   -1.5647    7.0084 C   0  0  0  0  0  0  0  0  0  0  0  0
   -0.0229   -1.2995    7.0932 C   0  0  0  0  0  0  0  0  0  0  0  0
    0.8417   -1.7767    6.1313 O   0  0  0  0  0  0  0  0  0  0  0  0
    2.2455   -1.5862    6.2297 C   0  0  2  0  0  0  0  0  0  0  0  0
    3.0324   -2.5871    5.4991 O   0  0  0  0  0  0  0  0  0  0  0  0
    2.7154   -3.9336    5.4321 C   0  0  0  0  0  0  0  0  0  0  0  0
    3.6468   -4.9123    5.2706 C   0  0  0  0  0  0  0  0  0  0  0  0
    3.2046   -6.2403    5.1353 O   0  0  0  0  0  0  0  0  0  0  0  0
    2.0342   -6.4631    4.3060 C   0  0  3  0  0  0  0  0  0  0  0  0
    0.9167   -5.4411    4.4988 C   0  0  3  0  0  0  0  0  0  0  0  0
    1.2720   -4.3565    5.4935 C   0  0  0  0  0  0  0  0  0  0  0  0
   -0.4347   -6.0451    4.8394 C   0  0  0  0  0  0  0  0  0  0  0  0
   -1.2351   -5.4112    5.6033 O   0  3  0  0  0  0  0  0  0  0  0  0
   -2.4128   -5.8416    5.8690 C   0  0  0  0  0  0  0  0  0  0  0  0
   -3.1001   -5.2020    6.6120 O   0  0  0  0  0  0  0  0  0  0  0  0
   -2.7809   -7.0144    5.5523 O   0  3  0  0  0  0  0  0  0  0  0  0
   -2.0484   -7.7069    4.7969 C   0  0  0  0  0  0  0  0  0  0  0  0
   -0.8296   -7.2369    4.1110 C   0  0  3  0  0  0  0  0  0  0  0  0
    0.3419   -8.2508    3.9947 C   0  0  3  0  0  0  0  0  0  0  0  0
    1.6326   -7.8176    4.4527 O   0  3  0  0  0  0  0  0  0  0  0  0
    0.4703   -8.7877    2.5814 C   0  0  3  0  0  0  0  0  0  0  0  0
    0.7439   -7.8196    1.5786 N   0  0  0  0  0  0  0  0  0  0  0  0
   -0.3888   -8.3345    1.5540 N   0  0  0  0  0  0  0  0  0  0  0  0
   -2.3745   -8.9559    4.4886 O   0  0  0  0  0  0  0  0  0  0  0  0
    5.1679   -4.7352    5.3160 C   0  0  0  0  0  0  0  0  0  0  0  0
    5.7197   -3.7181    6.1081 C   0  0  0  0  0  0  0  0  0  0  0  0
    7.0380   -3.4808    6.1505 N   0  3  0  0  0  0  0  0  0  0  0  0
    7.5041   -2.4621    6.9008 F   0  0  0  0  0  0  0  0  0  0  0  0
    7.9058   -4.1989    5.4776 N   0  0  0  0  0  0  0  0  0  0  0  0
    7.4941   -5.2358    4.7574 C   0  0  0  0  0  0  0  0  0  0  0  0
    6.1235   -5.5700    4.6419 C   0  0  0  0  0  0  0  0  0  0  0  0
    5.8413   -6.7205    3.8619 C   0  0  0  0  0  0  0  0  0  0  0  0
    6.8516   -7.5143    3.2728 C   0  0  0  0  0  0  0  0  0  0  0  0
    6.4796   -8.7194    2.5333 C   0  0  0  0  0  0  0  0  0  0  0  0
    5.2905   -9.0192    2.4680 O   0  0  0  0  0  0  0  0  0  0  0  0
    7.5976   -9.5243    1.8948 C   0  0  0  0  0  0  0  0  0  0  0  0
    7.3127  -10.4025    1.0952 O   0  0  0  0  0  0  0  0  0  0  0  0
    9.0018   -9.1822    2.3713 C   0  0  1  0  0  0  0  0  0  0  0  0
    9.2114   -7.8359    2.8190 O   0  0  0  0  0  0  0  0  0  0  0  0
    8.1744   -7.1626    3.3855 C   0  0  0  0  0  0  0  0  0  0  0  0
    8.4679   -6.0101    4.1125 C   0  0  0  0  0  0  0  0  0  0  0  0
    9.7520   -5.6351    4.2203 F   0  0  0  0  0  0  0  0  0  0  0  0
    9.4436  -10.1325    3.4378 C   0  0  1  0  0  0  0  0  0  0  0  0
    8.6423  -10.1520    4.6520 O   0  0  0  0  0  0  0  0  0  0  0  0
    9.9087  -11.3913    2.9768 O   0  0  0  0  0  0  0  0  0  0  0  0
   10.8247  -10.6159    3.5901 C   0  0  0  0  0  0  0  0  0  0  0  0
   11.4260  -10.8029    4.6292 O   0  0  0  0  0  0  0  0  0  0  0  0
    2.7398   -1.4605    7.6563 C   0  0  0  0  0  0  0  0  0  0  0  0
    3.6182   -2.1393    8.1653 O   0  0  0  0  0  0  0  0  0  0  0  0
    1.9400   -0.4381    8.4081 C   0  0  0  0  0  0  0  0  0  0  0  0
    2.5010    0.4860    8.9592 O   0  0  0  0  0  0  0  0  0  0  0  0
    0.4369   -0.5626    8.3127 C   0  0  0  0  0  0  0  0  0  0  0  0
   -0.3047   -0.2111    9.2100 O   0  0  0  0  0  0  0  0  0  0  0  0
  1  2  1  0  0  0  0
  2  3  2  0  0  0  0
  3  4  1  0  0  0  0
  3 53  1  0  0  0  0
  4  5  1  0  0  0  0
  5  6  1  1  0  0  0
  5 49  1  0  0  0  0
  6  7  1  0  0  0  0
  7  8  2  0  0  0  0
  7 12  1  0  0  0  0
  8  9  1  0  0  0  0
  8 26  1  0  0  0  0
  9 10  1  0  0  0  0
 10 11  1  0  0  0  0
 10 21  1  0  0  0  0
 11 12  1  0  0  0  0
 11 13  1  0  0  0  0
 13 14  2  0  0  0  0
 13 19  1  0  0  0  0
 14 15  1  0  0  0  0
 15 16  2  0  0  0  0
 15 17  1  0  0  0  0
 17 18  2  0  0  0  0
 18 19  1  0  0  0  0
 18 25  1  0  0  0  0
 19 20  1  0  0  0  0
 20 21  1  0  0  0  0
 20 22  1  0  0  0  0
 22 23  1  0  0  0  0
 22 24  1  0  0  0  0
 23 24  2  0  0  0  0
 26 27  2  0  0  0  0
 26 32  1  0  0  0  0
 27 28  1  0  0  0  0
 28 29  1  0  0  0  0
 28 30  2  0  0  0  0
 30 31  1  0  0  0  0
 31 32  2  0  0  0  0
 31 42  1  0  0  0  0
 32 33  1  0  0  0  0
 33 34  2  0  0  0  0
 34 35  1  0  0  0  0
 34 41  1  0  0  0  0
 35 36  2  0  0  0  0
 35 37  1  0  0  0  0
 37 38  2  0  0  0  0
 39 37  1  1  0  0  0
 39 40  1  0  0  0  0
 39 44  1  0  0  0  0
 40 41  1  0  0  0  0
 41 42  2  0  0  0  0
 42 43  1  0  0  0  0
 44 45  1  1  0  0  0
 44 46  1  0  0  0  0
 44 47  1  0  0  0  0
 46 47  1  0  0  0  0
 47 48  2  0  0  0  0
 49 50  2  0  0  0  0
 49 51  1  0  0  0  0
 51 52  2  0  0  0  0
 51 53  1  0  0  0  0
 53 54  2  0  0  0  0
M  CHG  4  14   1  17   1  21   1  28   1
M  END
$$$$