
 OpenBabel10202002363D

 51 59  0  0  1  0  0  0  0  0999 V2000
    0.6402   -1.0197    6.5964 O   0  0  0  0  0  0  0  0  0  0  0  0
    1.0028   -1.5668    5.3921 C   0  0  0  0  0  0  0  0  0  0  0  0
    1.1703   -0.8334    4.2850 C   0  0  0  0  0  0  0  0  0  0  0  0
    0.9403    0.5289    4.2977 O   0  0  0  0  0  0  0  0  0  0  0  0
    1.8080    1.2830    3.4514 C   0  0  2  0  0  0  0  0  0  0  0  0
    1.6089    2.6886    3.6364 O   0  0  0  0  0  0  0  0  0  0  0  0
    1.9257    3.2461    4.8737 C   0  0  0  0  0  0  0  0  0  0  0  0
    1.7623    4.5682    5.0996 C   0  0  0  0  0  0  0  0  0  0  0  0
    2.0544    5.1970    6.3074 O   0  0  0  0  0  0  0  0  0  0  0  0
    2.7536    4.4923    7.2664 C   0  0  0  0  0  0  0  0  0  0  0  0
    3.0239    3.1508    7.1212 C   0  0  0  0  0  0  0  0  0  0  0  0
    2.4781    2.3760    5.9698 C   0  0  0  0  0  0  0  0  0  0  0  0
    3.8160    2.5585    8.0971 C   0  0  0  0  0  0  0  0  0  0  0  0
    4.1388    1.2033    7.9406 O   0  0  0  0  0  0  0  0  0  0  0  0
    5.0188    0.5563    8.8149 C   0  0  0  0  0  0  0  0  0  0  0  0
    5.3316   -0.6076    8.5976 O   0  0  0  0  0  0  0  0  0  0  0  0
    5.4868    1.2727    9.8843 N   0  0  0  0  0  0  0  0  0  0  0  0
    5.1666    2.5134   10.0616 C   0  0  0  0  0  0  0  0  0  0  0  0
    4.3014    3.2772    9.1719 C   0  0  0  0  0  0  0  0  0  0  0  0
    3.9575    4.6258    9.2988 C   0  0  0  0  0  0  0  0  0  0  0  0
    3.1834    5.2151    8.3290 N   0  0  0  0  0  0  0  0  0  0  0  0
    4.3732    5.5392   10.4339 C   0  0  0  0  0  0  0  0  0  0  0  0
    4.5792    4.9932   11.7422 O   0  0  0  0  0  0  0  0  0  0  0  0
    5.7056    5.4414   10.9510 O   0  0  0  0  0  0  0  0  0  0  0  0
    1.2843    5.4905    4.0506 C   0  0  0  0  0  0  0  0  0  0  0  0
    2.2732    6.0043    3.2860 N   0  0  0  0  0  0  0  0  0  0  0  0
    1.8857    6.8099    2.2939 C   0  0  0  0  0  0  0  0  0  0  0  0
    0.6232    7.1429    1.9943 N   0  0  0  0  0  0  0  0  0  0  0  0
   -0.3412    6.6325    2.7646 C   0  0  0  0  0  0  0  0  0  0  0  0
   -0.0755    5.7885    3.8534 C   0  0  0  0  0  0  0  0  0  0  0  0
   -1.1536    5.3245    4.6480 C   0  0  0  0  0  0  0  0  0  0  0  0
   -2.4694    5.6860    4.3375 C   0  0  0  0  0  0  0  0  0  0  0  0
   -2.7334    6.4789    3.2306 C   0  0  0  0  0  0  0  0  0  0  0  0
   -1.6631    6.9550    2.4691 C   0  0  0  0  0  0  0  0  0  0  0  0
   -3.9803    6.8594    2.8192 O   0  0  0  0  0  0  0  0  0  0  0  0
   -5.0920    6.1414    3.3651 C   0  0  2  0  0  0  0  0  0  0  0  0
   -4.9575    5.7239    4.8105 C   0  0  0  0  0  0  0  0  0  0  0  0
   -5.8805    5.7089    5.6133 O   0  0  0  0  0  0  0  0  0  0  0  0
   -3.5756    5.2564    5.1996 C   0  0  0  0  0  0  0  0  0  0  0  0
   -3.3923    4.5790    6.1985 O   0  0  0  0  0  0  0  0  0  0  0  0
   -5.4338    4.9636    2.5070 C   0  0  1  0  0  0  0  0  0  0  0  0
   -4.4009    3.9617    2.3425 O   0  0  0  0  0  0  0  0  0  0  0  0
   -6.7564    4.4571    2.7056 O   0  0  0  0  0  0  0  0  0  0  0  0
   -6.4842    4.9659    1.4895 C   0  0  0  0  0  0  0  0  0  0  0  0
   -6.5234    4.4305    0.4043 O   0  0  0  0  0  0  0  0  0  0  0  0
    1.5339    0.8780    2.0130 C   0  0  0  0  0  0  0  0  0  0  0  0
    1.2783    1.6212    1.0784 O   0  0  0  0  0  0  0  0  0  0  0  0
    1.6464   -0.6163    1.8186 C   0  0  0  0  0  0  0  0  0  0  0  0
    1.8378   -1.0806    0.7057 O   0  0  0  0  0  0  0  0  0  0  0  0
    1.5661   -1.5283    3.0286 C   0  0  0  0  0  0  0  0  0  0  0  0
    1.8367   -2.7157    2.9613 O   0  0  0  0  0  0  0  0  0  0  0  0
  1  2  1  0  0  0  0
  2  3  2  0  0  0  0
  3  4  1  0  0  0  0
  3 50  1  0  0  0  0
  4  5  1  0  0  0  0
  5  6  1  6  0  0  0
  5 46  1  0  0  0  0
  6  7  1  0  0  0  0
  7  8  2  0  0  0  0
  7 12  1  0  0  0  0
  8  9  1  0  0  0  0
  8 25  1  0  0  0  0
  9 10  1  0  0  0  0
 10 11  2  0  0  0  0
 10 21  1  0  0  0  0
 11 12  1  0  0  0  0
 11 13  1  0  0  0  0
 13 14  1  0  0  0  0
 13 19  2  0  0  0  0
 14 15  1  0  0  0  0
 15 16  2  0  0  0  0
 15 17  1  0  0  0  0
 17 18  2  0  0  0  0
 18 19  1  0  0  0  0
 19 20  1  0  0  0  0
 20 21  2  0  0  0  0
 20 22  1  0  0  0  0
 22 23  1  0  0  0  0
 22 24  1  0  0  0  0
 23 24  1  0  0  0  0
 25 26  2  0  0  0  0
 25 30  1  0  0  0  0
 26 27  1  0  0  0  0
 27 28  2  0  0  0  0
 28 29  1  0  0  0  0
 29 30  2  0  0  0  0
 29 34  1  0  0  0  0
 30 31  1  0  0  0  0
 31 32  2  0  0  0  0
 32 33  1  0  0  0  0
 32 39  1  0  0  0  0
 33 34  2  0  0  0  0
 33 35  1  0  0  0  0
 36 35  1  6  0  0  0
 36 37  1  0  0  0  0
 36 41  1  0  0  0  0
 37 38  2  0  0  0  0
 37 39  1  0  0  0  0
 39 40  2  0  0  0  0
 41 42  1  6  0  0  0
 41 43  1  0  0  0  0
 41 44  1  0  0  0  0
 43 44  1  0  0  0  0
 44 45  2  0  0  0  0
 46 47  2  0  0  0  0
 46 48  1  0  0  0  0
 48 49  2  0  0  0  0
 48 50  1  0  0  0  0
 50 51  2  0  0  0  0
M  END
$$$$