
 OpenBabel11242000133D

 53 62  0  0  1  0  0  0  0  0999 V2000
    8.2542   -1.2064   -8.6597 O   0  0  0  0  0  0  0  0  0  0  0  0
    8.9706   -0.7176   -7.5986 C   0  0  0  0  0  0  0  0  0  0  0  0
    9.0515   -1.3613   -6.4291 C   0  0  0  0  0  0  0  0  0  0  0  0
    8.3910   -2.5647   -6.2259 O   0  0  0  0  0  0  0  0  0  0  0  0
    9.0252   -3.4040   -5.2599 C   0  0  2  0  0  0  0  0  0  0  0  0
    8.3637   -4.6765   -5.1487 O   0  0  0  0  0  0  0  0  0  0  0  0
    8.3391   -5.4548   -6.2961 C   0  0  0  0  0  0  0  0  0  0  0  0
    7.3171   -6.3030   -6.5400 C   0  0  0  0  0  0  0  0  0  0  0  0
    7.3013   -7.1130   -7.6525 N   0  0  0  0  0  0  0  0  0  0  0  0
    8.3096   -7.1536   -8.5870 C   0  0  0  0  0  0  0  0  0  0  0  0
    9.4057   -6.3848   -8.4104 C   0  0  0  0  0  0  0  0  0  0  0  0
    9.5238   -5.4192   -7.2534 C   0  0  0  0  0  0  0  0  0  0  0  0
   10.5335   -6.3913   -9.4147 C   0  0  3  0  0  0  0  0  0  0  0  0
   11.7427   -6.8561   -8.7502 N   0  0  0  0  0  0  0  0  0  0  0  0
   12.8441   -7.1204   -9.4966 C   0  0  0  0  0  0  0  0  0  0  0  0
   14.0276   -7.0928   -8.9992 N   0  0  0  0  0  0  0  0  0  0  0  0
   12.6408   -7.5227  -10.7664 N   0  0  0  0  0  0  0  0  0  0  0  0
   11.4560   -7.2596  -11.5379 C   0  0  0  0  0  0  0  0  0  0  0  0
   10.2993   -7.2867  -10.5959 C   0  0  0  0  0  0  0  0  0  0  0  0
    9.1769   -8.0281  -10.7081 C   0  0  0  0  0  0  0  0  0  0  0  0
    8.2279   -7.9577   -9.6944 N   0  0  0  0  0  0  0  0  0  0  0  0
    8.8812   -8.9323  -11.8321 C   0  0  3  0  0  0  0  0  0  0  0  0
    8.1876   -8.4114  -12.9552 N   0  0  0  0  0  0  0  0  0  0  0  0
    7.5208   -9.1432  -12.2014 N   0  0  0  0  0  0  0  0  0  0  0  0
    6.2124   -6.4815   -5.5854 C   0  0  0  0  0  0  0  0  0  0  0  0
    6.3688   -7.4663   -4.6199 C   0  0  0  0  0  0  0  0  0  0  0  0
    5.3912   -7.7206   -3.7497 N   0  3  0  0  0  0  0  0  0  0  0  0
    5.5619   -8.7033   -2.8453 F   0  0  0  0  0  0  0  0  0  0  0  0
    4.2490   -7.0577   -3.7484 N   0  0  0  0  0  0  0  0  0  0  0  0
    4.0423   -6.0795   -4.6421 C   0  0  0  0  0  0  0  0  0  0  0  0
    5.0158   -5.7485   -5.6063 C   0  0  0  0  0  0  0  0  0  0  0  0
    4.7490   -4.7245   -6.5405 C   0  0  0  0  0  0  0  0  0  0  0  0
    3.5356   -4.0366   -6.5064 C   0  0  0  0  0  0  0  0  0  0  0  0
    2.5680   -4.3568   -5.5708 C   0  0  0  0  0  0  0  0  0  0  0  0
    2.8252   -5.3644   -4.6175 C   0  0  0  0  0  0  0  0  0  0  0  0
    1.7676   -5.7973   -3.7811 N   0  0  0  0  0  0  0  0  0  0  0  0
    1.3348   -3.7529   -5.5289 O   0  0  0  0  0  0  0  0  0  0  0  0
    1.1362   -2.5178   -6.2655 C   0  0  1  0  0  0  0  0  0  0  0  0
    2.2740   -1.9290   -6.9881 C   0  0  0  0  0  0  0  0  0  0  0  0
    2.4616   -0.7312   -7.1188 O   0  0  0  0  0  0  0  0  0  0  0  0
    3.2735   -2.9510   -7.4475 C   0  0  0  0  0  0  0  0  0  0  0  0
    3.8699   -2.8495   -8.5044 O   0  0  0  0  0  0  0  0  0  0  0  0
   -0.1153   -2.3593   -6.8862 O   0  0  0  0  0  0  0  0  0  0  0  0
    0.1502   -1.5308   -5.7106 C   0  0  1  0  0  0  0  0  0  0  0  0
   -0.2928   -2.0581   -4.3933 O   0  0  0  0  0  0  0  0  0  0  0  0
   -1.1145   -1.2952   -5.0775 C   0  0  0  0  0  0  0  0  0  0  0  0
   -1.7323   -0.2964   -4.7820 O   0  0  0  0  0  0  0  0  0  0  0  0
    8.9568   -2.7192   -3.9080 C   0  0  0  0  0  0  0  0  0  0  0  0
    8.5338   -3.2142   -2.8752 O   0  0  0  0  0  0  0  0  0  0  0  0
    9.4881   -1.3042   -3.9649 C   0  0  0  0  0  0  0  0  0  0  0  0
    9.6133   -0.6428   -2.9503 O   0  0  0  0  0  0  0  0  0  0  0  0
    9.8283   -0.7275   -5.3261 C   0  0  0  0  0  0  0  0  0  0  0  0
   10.6907    0.1171   -5.4803 O   0  0  0  0  0  0  0  0  0  0  0  0
  1  2  1  0  0  0  0
  2  3  2  0  0  0  0
  3  4  1  0  0  0  0
  3 52  1  0  0  0  0
  4  5  1  0  0  0  0
  5  6  1  1  0  0  0
  5 48  1  0  0  0  0
  6  7  1  0  0  0  0
  7  8  2  0  0  0  0
  7 12  1  0  0  0  0
  8  9  1  0  0  0  0
  8 25  1  0  0  0  0
  9 10  1  0  0  0  0
 10 11  2  0  0  0  0
 10 21  1  0  0  0  0
 11 12  1  0  0  0  0
 11 13  1  0  0  0  0
 13 14  1  0  0  0  0
 13 19  1  0  0  0  0
 14 15  1  0  0  0  0
 15 16  2  0  0  0  0
 15 17  1  0  0  0  0
 17 18  1  0  0  0  0
 18 19  1  0  0  0  0
 19 20  2  0  0  0  0
 20 21  1  0  0  0  0
 20 22  1  0  0  0  0
 22 23  1  0  0  0  0
 22 24  1  0  0  0  0
 23 24  2  0  0  0  0
 25 26  2  0  0  0  0
 25 31  1  0  0  0  0
 26 27  1  0  0  0  0
 27 28  1  0  0  0  0
 27 29  2  0  0  0  0
 29 30  1  0  0  0  0
 30 31  2  0  0  0  0
 30 35  1  0  0  0  0
 31 32  1  0  0  0  0
 32 33  2  0  0  0  0
 33 34  1  0  0  0  0
 33 41  1  0  0  0  0
 34 35  2  0  0  0  0
 34 37  1  0  0  0  0
 35 36  1  0  0  0  0
 38 37  1  1  0  0  0
 38 39  1  0  0  0  0
 38 43  1  0  0  0  0
 38 44  1  0  0  0  0
 39 40  2  0  0  0  0
 39 41  1  0  0  0  0
 41 42  2  0  0  0  0
 44 43  1  6  0  0  0
 44 45  1  0  0  0  0
 44 46  1  0  0  0  0
 45 46  1  0  0  0  0
 46 47  2  0  0  0  0
 48 49  2  0  0  0  0
 48 50  1  0  0  0  0
 50 51  2  0  0  0  0
 50 52  1  0  0  0  0
 52 53  2  0  0  0  0
M  CHG  1  27   1
M  END
$$$$