
 OpenBabel11262000423D

 55 63  0  0  1  0  0  0  0  0999 V2000
    4.7903   -7.3928   -4.5326 O   0  0  0  0  0  0  0  0  0  0  0  0
    4.4696   -7.0481   -3.2468 C   0  0  0  0  0  0  0  0  0  0  0  0
    4.1878   -5.7987   -2.8550 C   0  0  0  0  0  0  0  0  0  0  0  0
    4.2392   -4.7100   -3.7127 O   0  0  0  0  0  0  0  0  0  0  0  0
    3.1207   -3.8242   -3.5547 C   0  0  2  0  0  0  0  0  0  0  0  0
    3.1078   -2.8066   -4.5792 O   0  0  0  0  0  0  0  0  0  0  0  0
    2.4563   -3.1162   -5.7801 C   0  0  0  0  0  0  0  0  0  0  0  0
    1.9377   -2.1620   -6.5907 C   0  0  0  0  0  0  0  0  0  0  0  0
    1.3349   -2.4381   -7.8293 O   0  0  0  0  0  0  0  0  0  0  0  0
    1.4351   -3.7142   -8.3614 C   0  0  0  0  0  0  0  0  0  0  0  0
    1.9226   -4.7571   -7.6181 C   0  0  0  0  0  0  0  0  0  0  0  0
    2.4021   -4.5551   -6.2182 C   0  0  0  0  0  0  0  0  0  0  0  0
    1.9973   -6.0063   -8.2364 C   0  0  0  0  0  0  0  0  0  0  0  0
    2.4450   -7.0525   -7.4324 O   0  0  0  0  0  0  0  0  0  0  0  0
    2.6397   -8.2978   -7.9633 C   0  0  0  0  0  0  0  0  0  0  0  0
    3.0738   -9.2372   -7.2010 N   0  0  0  0  0  0  0  0  0  0  0  0
    2.3846   -8.5146   -9.2608 O   0  0  0  0  0  0  0  0  0  0  0  0
    1.9398   -7.5537  -10.0998 C   0  0  0  0  0  0  0  0  0  0  0  0
    1.8022   -7.8151  -11.2849 O   0  0  0  0  0  0  0  0  0  0  0  0
    1.6793   -6.2051   -9.5652 C   0  0  0  0  0  0  0  0  0  0  0  0
    1.2074   -5.0985  -10.2908 C   0  0  0  0  0  0  0  0  0  0  0  0
    1.0772   -3.8690   -9.6614 N   0  0  0  0  0  0  0  0  0  0  0  0
    0.8709   -5.0939  -11.7777 C   0  0  0  0  0  0  0  0  0  0  0  0
    0.2122   -6.2061  -12.3986 O   0  0  0  0  0  0  0  0  0  0  0  0
   -0.5302   -5.0138  -12.1192 O   0  0  0  0  0  0  0  0  0  0  0  0
    2.0284   -0.7050   -6.3065 C   0  0  0  0  0  0  0  0  0  0  0  0
    3.1561   -0.0578   -6.8285 C   0  0  0  0  0  0  0  0  0  0  0  0
    3.2758    1.3010   -6.6596 C   0  0  0  0  0  0  0  0  0  0  0  0
    4.3397    1.9250   -7.1844 F   0  0  0  0  0  0  0  0  0  0  0  0
    2.3751    2.0543   -6.0150 N   0  0  0  0  0  0  0  0  0  0  0  0
    1.2858    1.4606   -5.5022 C   0  0  0  0  0  0  0  0  0  0  0  0
    1.0399    0.0632   -5.6030 C   0  0  0  0  0  0  0  0  0  0  0  0
   -0.1637   -0.4271   -5.0066 C   0  0  0  0  0  0  0  0  0  0  0  0
   -0.4301   -1.7763   -5.0791 O   0  0  0  0  0  0  0  0  0  0  0  0
   -1.0767    0.4335   -4.3661 C   0  0  0  0  0  0  0  0  0  0  0  0
   -2.3028   -0.0745   -3.7380 C   0  0  0  0  0  0  0  0  0  0  0  0
   -2.5765   -1.2666   -3.7586 O   0  0  0  0  0  0  0  0  0  0  0  0
   -3.2188    0.9335   -3.0920 C   0  0  0  0  0  0  0  0  0  0  0  0
   -4.0241    0.5945   -2.2381 O   0  0  0  0  0  0  0  0  0  0  0  0
   -3.0751    2.3200   -3.6525 C   0  0  1  0  0  0  0  0  0  0  0  0
   -1.7049    2.7197   -3.8038 O   0  0  0  0  0  0  0  0  0  0  0  0
   -0.8408    1.7964   -4.3289 C   0  0  0  0  0  0  0  0  0  0  0  0
    0.3489    2.2802   -4.8698 C   0  0  0  0  0  0  0  0  0  0  0  0
    0.5754    3.6056   -4.8057 F   0  0  0  0  0  0  0  0  0  0  0  0
   -3.8259    2.4701   -4.9447 C   0  0  1  0  0  0  0  0  0  0  0  0
   -3.4193    1.6341   -6.0498 O   0  0  0  0  0  0  0  0  0  0  0  0
   -5.2481    2.6171   -4.8339 O   0  0  0  0  0  0  0  0  0  0  0  0
   -4.5528    3.7037   -5.2364 C   0  0  0  0  0  0  0  0  0  0  0  0
   -4.5048    4.8051   -4.7668 O   0  0  0  0  0  0  0  0  0  0  0  0
    3.0635   -3.2253   -2.1409 C   0  0  0  0  0  0  0  0  0  0  0  0
    2.5111   -2.1794   -1.8290 O   0  0  0  0  0  0  0  0  0  0  0  0
    3.5974   -4.1608   -1.0734 C   0  0  0  0  0  0  0  0  0  0  0  0
    3.8590   -3.7684    0.0518 O   0  0  0  0  0  0  0  0  0  0  0  0
    3.8008   -5.6114   -1.4327 C   0  0  0  0  0  0  0  0  0  0  0  0
    3.5892   -6.5157   -0.6435 O   0  0  0  0  0  0  0  0  0  0  0  0
  1  2  1  0  0  0  0
  2  3  2  0  0  0  0
  3  4  1  0  0  0  0
  3 54  1  0  0  0  0
  4  5  1  0  0  0  0
  5  6  1  6  0  0  0
  5 50  1  0  0  0  0
  6  7  1  0  0  0  0
  7  8  2  0  0  0  0
  7 12  1  0  0  0  0
  8  9  1  0  0  0  0
  8 26  1  0  0  0  0
  9 10  1  0  0  0  0
 10 11  2  0  0  0  0
 10 22  1  0  0  0  0
 11 12  1  0  0  0  0
 11 13  1  0  0  0  0
 13 14  1  0  0  0  0
 13 20  2  0  0  0  0
 14 15  1  0  0  0  0
 15 16  2  0  0  0  0
 15 17  1  0  0  0  0
 17 18  1  0  0  0  0
 18 19  2  0  0  0  0
 18 20  1  0  0  0  0
 20 21  1  0  0  0  0
 21 22  2  0  0  0  0
 21 23  1  0  0  0  0
 23 24  1  0  0  0  0
 23 25  1  0  0  0  0
 24 25  1  0  0  0  0
 26 27  2  0  0  0  0
 26 32  1  0  0  0  0
 27 28  1  0  0  0  0
 28 29  1  0  0  0  0
 28 30  2  0  0  0  0
 30 31  1  0  0  0  0
 31 32  2  0  0  0  0
 31 43  1  0  0  0  0
 32 33  1  0  0  0  0
 33 34  1  0  0  0  0
 33 35  2  0  0  0  0
 35 36  1  0  0  0  0
 35 42  1  0  0  0  0
 36 37  2  0  0  0  0
 36 38  1  0  0  0  0
 38 39  2  0  0  0  0
 40 38  1  6  0  0  0
 40 41  1  0  0  0  0
 40 45  1  0  0  0  0
 41 42  1  0  0  0  0
 42 43  2  0  0  0  0
 43 44  1  0  0  0  0
 45 46  1  6  0  0  0
 45 47  1  0  0  0  0
 45 48  1  0  0  0  0
 47 48  1  0  0  0  0
 48 49  2  0  0  0  0
 50 51  2  0  0  0  0
 50 52  1  0  0  0  0
 52 53  2  0  0  0  0
 52 54  1  0  0  0  0
 54 55  2  0  0  0  0
M  END
$$$$