
 OpenBabel09262018353D

 50 58  0  0  1  0  0  0  0  0999 V2000
    5.0762   -5.3478    7.6617 N   0  0  0  0  0  0  0  0  0  0  0  0
    4.5270   -4.1044    7.4969 C   0  0  0  0  0  0  0  0  0  0  0  0
    4.4807   -3.4008    6.3577 C   0  0  0  0  0  0  0  0  0  0  0  0
    5.0485   -3.8978    5.1901 O   0  0  0  0  0  0  0  0  0  0  0  0
    4.0500   -4.0513    4.1576 C   0  0  2  0  0  0  0  0  0  0  0  0
    4.6284   -4.5321    2.9322 O   0  0  0  0  0  0  0  0  0  0  0  0
    5.2681   -5.7655    2.9463 C   0  0  0  0  0  0  0  0  0  0  0  0
    6.2978   -6.0462    2.1060 C   0  0  0  0  0  0  0  0  0  0  0  0
    6.9535   -7.2856    2.1251 O   0  0  0  0  0  0  0  0  0  0  0  0
    6.5293   -8.2834    2.9977 C   0  0  0  0  0  0  0  0  0  0  0  0
    5.4614   -8.1052    3.7878 C   0  0  0  0  0  0  0  0  0  0  0  0
    4.7088   -6.8273    3.8565 C   0  0  0  0  0  0  0  0  0  0  0  0
    5.0083   -9.2377    4.6363 C   0  0  0  0  0  0  0  0  0  0  0  0
    3.9789   -9.1055    5.4073 N   0  0  0  0  0  0  0  0  0  0  0  0
    3.5657  -10.1745    6.1762 C   0  0  0  0  0  0  0  0  0  0  0  0
    2.6132  -10.0101    6.9308 O   0  0  0  0  0  0  0  0  0  0  0  0
    4.1622  -11.4171    6.1256 N   0  0  0  0  0  0  0  0  0  0  0  0
    5.1964  -11.5801    5.3635 C   0  0  0  0  0  0  0  0  0  0  0  0
    5.7647  -10.5053    4.5491 C   0  0  0  0  0  0  0  0  0  0  0  0
    6.8618  -10.5781    3.7657 C   0  0  0  0  0  0  0  0  0  0  0  0
    7.2315   -9.4660    3.0155 N   0  0  0  0  0  0  0  0  0  0  0  0
    7.7437  -11.7620    3.6366 C   0  0  3  0  0  0  0  0  0  0  0  0
    7.4826  -12.7887    2.5603 C   0  0  0  0  0  0  0  0  0  0  0  0
    8.6215  -11.9237    2.5052 O   0  0  0  0  0  0  0  0  0  0  0  0
    6.7500   -5.1026    1.0331 C   0  0  0  0  0  0  0  0  0  0  0  0
    5.7420   -4.3608    0.5143 N   0  0  0  0  0  0  0  0  0  0  0  0
    6.0410   -3.4632   -0.4208 C   0  0  0  0  0  0  0  0  0  0  0  0
    7.2506   -3.2633   -0.9413 N   0  0  0  0  0  0  0  0  0  0  0  0
    8.2371   -4.0262   -0.4750 C   0  0  0  0  0  0  0  0  0  0  0  0
    8.0699   -4.9930    0.5358 C   0  0  0  0  0  0  0  0  0  0  0  0
    9.2145   -5.7415    0.9300 C   0  0  0  0  0  0  0  0  0  0  0  0
   10.4586   -5.5465    0.3106 C   0  0  0  0  0  0  0  0  0  0  0  0
   10.6020   -4.5834   -0.6691 C   0  0  0  0  0  0  0  0  0  0  0  0
    9.4879   -3.8363   -1.0470 C   0  0  0  0  0  0  0  0  0  0  0  0
   11.7458   -4.3275   -1.3594 O   0  0  0  0  0  0  0  0  0  0  0  0
   12.9668   -4.8226   -0.8161 C   0  0  2  0  0  0  0  0  0  0  0  0
   12.9296   -6.0884    0.0151 C   0  0  0  0  0  0  0  0  0  0  0  0
   13.9043   -6.7974    0.2348 O   0  0  0  0  0  0  0  0  0  0  0  0
   11.5939   -6.4114    0.6425 C   0  0  0  0  0  0  0  0  0  0  0  0
   11.4575   -7.3816    1.3735 O   0  0  0  0  0  0  0  0  0  0  0  0
   13.6660   -3.7087   -0.0773 C   0  0  2  0  0  0  0  0  0  0  0  0
   13.3776   -3.5752    1.3202 O   0  0  0  0  0  0  0  0  0  0  0  0
   14.1057   -2.4564   -0.7949 C   0  0  0  0  0  0  0  0  0  0  0  0
   15.0322   -3.4919   -0.4397 O   0  0  0  0  0  0  0  0  0  0  0  0
    3.2959   -2.7244    3.8631 C   0  0  1  0  0  0  0  0  0  0  0  0
    2.7119   -2.1722    5.1765 C   0  0  1  0  0  0  0  0  0  0  0  0
    3.8279   -2.0507    6.2300 C   0  0  2  0  0  0  0  0  0  0  0  0
    4.8275   -1.1220    5.7751 O   0  0  0  0  0  0  0  0  0  0  0  0
    2.0908   -0.9035    4.9391 O   0  0  0  0  0  0  0  0  0  0  0  0
    4.1329   -1.7101    3.2650 O   0  0  0  0  0  0  0  0  0  0  0  0
  1  2  1  0  0  0  0
  2  3  2  0  0  0  0
  3  4  1  0  0  0  0
  3 47  1  0  0  0  0
  4  5  1  0  0  0  0
  5  6  1  6  0  0  0
  5 45  1  0  0  0  0
  6  7  1  0  0  0  0
  7  8  2  0  0  0  0
  7 12  1  0  0  0  0
  8  9  1  0  0  0  0
  8 25  1  0  0  0  0
  9 10  1  0  0  0  0
 10 11  2  0  0  0  0
 10 21  1  0  0  0  0
 11 12  1  0  0  0  0
 11 13  1  0  0  0  0
 13 14  2  0  0  0  0
 13 19  1  0  0  0  0
 14 15  1  0  0  0  0
 15 16  2  0  0  0  0
 15 17  1  0  0  0  0
 17 18  2  0  0  0  0
 18 19  1  0  0  0  0
 19 20  2  0  0  0  0
 20 21  1  0  0  0  0
 20 22  1  0  0  0  0
 22 23  1  0  0  0  0
 22 24  1  0  0  0  0
 23 24  1  0  0  0  0
 25 26  2  0  0  0  0
 25 30  1  0  0  0  0
 26 27  1  0  0  0  0
 27 28  2  0  0  0  0
 28 29  1  0  0  0  0
 29 30  2  0  0  0  0
 29 34  1  0  0  0  0
 30 31  1  0  0  0  0
 31 32  2  0  0  0  0
 32 33  1  0  0  0  0
 32 39  1  0  0  0  0
 33 34  2  0  0  0  0
 33 35  1  0  0  0  0
 36 35  1  1  0  0  0
 36 37  1  0  0  0  0
 37 38  2  0  0  0  0
 37 39  1  0  0  0  0
 39 40  2  0  0  0  0
 41 43  1  0  0  0  0
 41 44  1  0  0  0  0
 41 36  1  0  0  0  0
 41 42  1  1  0  0  0
 43 44  1  0  0  0  0
 45 46  1  0  0  0  0
 45 50  1  1  0  0  0
 46 47  1  0  0  0  0
 46 49  1  6  0  0  0
 47 48  1  6  0  0  0
M  END
$$$$