
 OpenBabel10282009203D

 51 59  0  0  1  0  0  0  0  0999 V2000
   -0.3806    3.8236   -4.7031 F   0  0  0  0  0  0  0  0  0  0  0  0
    0.0988    3.4876   -3.4882 C   0  0  0  0  0  0  0  0  0  0  0  0
    0.6915    2.3100   -3.2801 C   0  0  0  0  0  0  0  0  0  0  0  0
    0.7699    1.3794   -4.2917 O   0  0  0  0  0  0  0  0  0  0  0  0
    1.8883    0.4877   -4.2708 C   0  0  2  0  0  0  0  0  0  0  0  0
    1.8725   -0.4019   -5.3991 O   0  0  0  0  0  0  0  0  0  0  0  0
    1.9047    0.1458   -6.6820 C   0  0  0  0  0  0  0  0  0  0  0  0
    1.8721   -0.6386   -7.7843 C   0  0  0  0  0  0  0  0  0  0  0  0
    1.9217   -0.1378   -9.0894 O   0  0  0  0  0  0  0  0  0  0  0  0
    2.0040    1.2344   -9.2860 C   0  0  0  0  0  0  0  0  0  0  0  0
    2.0319    2.0937   -8.2562 C   0  0  0  0  0  0  0  0  0  0  0  0
    1.9826    1.6401   -6.8446 C   0  0  0  0  0  0  0  0  0  0  0  0
    2.0615    3.5778   -8.4878 C   0  0  3  0  0  0  0  0  0  0  0  0
    3.1142    4.1278   -7.7007 O   0  0  0  0  0  0  0  0  0  0  0  0
    3.1484    5.4850   -7.6788 C   0  0  0  0  0  0  0  0  0  0  0  0
    3.6275    6.1087   -6.7442 O   0  0  0  0  0  0  0  0  0  0  0  0
    2.5714    6.0823   -8.7558 O   0  0  0  0  0  0  0  0  0  0  0  0
    2.6578    5.4100  -10.0251 C   0  0  0  0  0  0  0  0  0  0  0  0
    2.3248    3.9647   -9.8998 C   0  0  0  0  0  0  0  0  0  0  0  0
    2.3151    3.0473  -10.8956 C   0  0  0  0  0  0  0  0  0  0  0  0
    2.0737    1.7136  -10.5752 N   0  0  0  0  0  0  0  0  0  0  0  0
    2.5971    3.3556  -12.3148 C   0  0  0  0  0  0  0  0  0  0  0  0
    1.9938    2.6226  -13.3928 O   0  0  0  0  0  0  0  0  0  0  0  0
    1.6305    3.9973  -13.1597 O   0  0  0  0  0  0  0  0  0  0  0  0
    1.7848   -2.1101   -7.7121 C   0  0  0  0  0  0  0  0  0  0  0  0
    0.5245   -2.5946   -7.6764 N   0  0  0  0  0  0  0  0  0  0  0  0
    0.4119   -3.9218   -7.5769 C   0  0  0  0  0  0  0  0  0  0  0  0
    1.4229   -4.8002   -7.5272 N   0  0  0  0  0  0  0  0  0  0  0  0
    2.6624   -4.3050   -7.5720 C   0  0  0  0  0  0  0  0  0  0  0  0
    2.9259   -2.9310   -7.6707 C   0  0  0  0  0  0  0  0  0  0  0  0
    4.2704   -2.4852   -7.7104 C   0  0  0  0  0  0  0  0  0  0  0  0
    5.3243   -3.4026   -7.6427 C   0  0  0  0  0  0  0  0  0  0  0  0
    5.0620   -4.7611   -7.5574 C   0  0  0  0  0  0  0  0  0  0  0  0
    3.7336   -5.1927   -7.5142 C   0  0  0  0  0  0  0  0  0  0  0  0
    6.0138   -5.7382   -7.4852 O   0  0  0  0  0  0  0  0  0  0  0  0
    7.3430   -5.3789   -7.8708 C   0  0  2  0  0  0  0  0  0  0  0  0
    7.7912   -3.9771   -7.5262 C   0  0  0  0  0  0  0  0  0  0  0  0
    8.9419   -3.6738   -7.2410 O   0  0  0  0  0  0  0  0  0  0  0  0
    6.7105   -2.9271   -7.6151 C   0  0  0  0  0  0  0  0  0  0  0  0
    6.9822   -1.7365   -7.6287 O   0  0  0  0  0  0  0  0  0  0  0  0
    7.5515   -5.6549   -9.3258 C   0  0  1  0  0  0  0  0  0  0  0  0
    6.6915   -4.9436  -10.2486 O   0  0  0  0  0  0  0  0  0  0  0  0
    8.9220   -5.7663   -9.7182 O   0  0  0  0  0  0  0  0  0  0  0  0
    8.1685   -6.8765   -9.8473 C   0  0  0  0  0  0  0  0  0  0  0  0
    7.9091   -7.5205  -10.8348 O   0  0  0  0  0  0  0  0  0  0  0  0
    1.8211   -0.2916   -2.9686 C   0  0  0  0  0  0  0  0  0  0  0  0
    1.7943   -1.5050   -2.8360 O   0  0  0  0  0  0  0  0  0  0  0  0
    1.7838    0.6224   -1.7675 C   0  0  0  0  0  0  0  0  0  0  0  0
    2.2800    0.2673   -0.7103 O   0  0  0  0  0  0  0  0  0  0  0  0
    1.1752    2.0036   -1.9092 C   0  0  0  0  0  0  0  0  0  0  0  0
    1.1050    2.7818   -0.9729 O   0  0  0  0  0  0  0  0  0  0  0  0
  1  2  1  0  0  0  0
  2  3  2  0  0  0  0
  3  4  1  0  0  0  0
  3 50  1  0  0  0  0
  4  5  1  0  0  0  0
  5  6  1  6  0  0  0
  5 46  1  0  0  0  0
  6  7  1  0  0  0  0
  7  8  2  0  0  0  0
  7 12  1  0  0  0  0
  8  9  1  0  0  0  0
  8 25  1  0  0  0  0
  9 10  1  0  0  0  0
 10 11  2  0  0  0  0
 10 21  1  0  0  0  0
 11 12  1  0  0  0  0
 11 13  1  0  0  0  0
 13 14  1  0  0  0  0
 13 19  1  0  0  0  0
 14 15  1  0  0  0  0
 15 16  2  0  0  0  0
 15 17  1  0  0  0  0
 17 18  1  0  0  0  0
 18 19  1  0  0  0  0
 19 20  2  0  0  0  0
 20 21  1  0  0  0  0
 20 22  1  0  0  0  0
 22 23  1  0  0  0  0
 22 24  1  0  0  0  0
 23 24  1  0  0  0  0
 25 26  2  0  0  0  0
 25 30  1  0  0  0  0
 26 27  1  0  0  0  0
 27 28  2  0  0  0  0
 28 29  1  0  0  0  0
 29 30  2  0  0  0  0
 29 34  1  0  0  0  0
 30 31  1  0  0  0  0
 31 32  2  0  0  0  0
 32 33  1  0  0  0  0
 32 39  1  0  0  0  0
 33 34  2  0  0  0  0
 33 35  1  0  0  0  0
 36 35  1  6  0  0  0
 36 37  1  0  0  0  0
 36 41  1  0  0  0  0
 37 38  2  0  0  0  0
 37 39  1  0  0  0  0
 39 40  2  0  0  0  0
 41 42  1  6  0  0  0
 41 43  1  0  0  0  0
 41 44  1  0  0  0  0
 43 44  1  0  0  0  0
 44 45  2  0  0  0  0
 46 47  2  0  0  0  0
 46 48  1  0  0  0  0
 48 49  2  0  0  0  0
 48 50  1  0  0  0  0
 50 51  2  0  0  0  0
M  END
$$$$