
 OpenBabel11212017213D

 54 62  0  0  1  0  0  0  0  0999 V2000
    6.0011    4.1065    5.0556 O   0  0  0  0  0  0  0  0  0  0  0  0
    5.6232    4.5214    3.8021 C   0  0  0  0  0  0  0  0  0  0  0  0
    4.7013    3.8759    3.0785 C   0  0  0  0  0  0  0  0  0  0  0  0
    4.1358    2.7014    3.5395 O   0  0  0  0  0  0  0  0  0  0  0  0
    2.7165    2.6729    3.4188 C   0  0  2  0  0  0  0  0  0  0  0  0
    2.1691    1.5074    4.0723 O   0  0  0  0  0  0  0  0  0  0  0  0
    2.3803    1.3712    5.4446 C   0  0  0  0  0  0  0  0  0  0  0  0
    2.4528    0.1541    6.0300 C   0  0  0  0  0  0  0  0  0  0  0  0
    2.6911   -0.0250    7.3938 O   0  0  0  0  0  0  0  0  0  0  0  0
    2.9585    1.0769    8.1955 C   0  0  0  0  0  0  0  0  0  0  0  0
    2.8417    2.3309    7.7249 C   0  0  0  0  0  0  0  0  0  0  0  0
    2.4778    2.6135    6.2962 C   0  0  0  0  0  0  0  0  0  0  0  0
    3.1330    3.5315    8.5773 C   0  0  3  0  0  0  0  0  0  0  0  0
    1.9254    4.2495    8.7523 O   0  0  0  0  0  0  0  0  0  0  0  0
    1.9808    5.3707    9.5215 C   0  0  0  0  0  0  0  0  0  0  0  0
    1.0971    6.2109    9.4957 O   0  0  0  0  0  0  0  0  0  0  0  0
    3.0864    5.5001   10.2963 O   0  0  0  0  0  0  0  0  0  0  0  0
    3.8583    4.3823   10.7229 C   0  0  3  0  0  0  0  0  0  0  0  0
    3.5858    3.1534    9.9340 C   0  0  0  0  0  0  0  0  0  0  0  0
    3.7002    1.8692   10.3414 C   0  0  0  0  0  0  0  0  0  0  0  0
    3.3569    0.8312    9.4873 O   0  3  0  0  0  0  0  0  0  0  0  0
    4.1737    1.4745   11.6871 C   0  0  0  0  0  0  0  0  0  0  0  0
    3.2577    1.3060   12.7752 O   0  0  0  0  0  0  0  0  0  0  0  0
    3.9057    0.1565   12.1964 O   0  0  0  0  0  0  0  0  0  0  0  0
    5.2247    4.6693   10.4922 O   0  0  0  0  0  0  0  0  0  0  0  0
    2.3282   -1.1196    5.2911 C   0  0  0  0  0  0  0  0  0  0  0  0
    3.5012   -1.5948    4.8382 N   0  0  0  0  0  0  0  0  0  0  0  0
    3.4424   -2.7539    4.1731 C   0  0  0  0  0  0  0  0  0  0  0  0
    4.6000   -3.2552    3.7232 F   0  0  0  0  0  0  0  0  0  0  0  0
    2.3374   -3.4746    3.9553 N   0  0  0  0  0  0  0  0  0  0  0  0
    1.1775   -3.0148    4.4443 C   0  0  0  0  0  0  0  0  0  0  0  0
    1.1092   -1.8064    5.1539 C   0  0  0  0  0  0  0  0  0  0  0  0
   -0.1289   -1.3838    5.6938 C   0  0  0  0  0  0  0  0  0  0  0  0
   -1.2763   -2.1689    5.5438 C   0  0  0  0  0  0  0  0  0  0  0  0
   -2.5262   -1.7623    6.1840 C   0  0  0  0  0  0  0  0  0  0  0  0
   -2.6111   -0.7001    6.7809 O   0  0  0  0  0  0  0  0  0  0  0  0
   -3.6706   -2.7471    6.1583 C   0  0  0  0  0  0  0  0  0  0  0  0
   -4.7595   -2.4414    6.6261 O   0  0  0  0  0  0  0  0  0  0  0  0
   -3.3096   -4.1411    5.6970 C   0  0  1  0  0  0  0  0  0  0  0  0
   -2.2991   -4.1893    4.6801 O   0  0  0  0  0  0  0  0  0  0  0  0
   -1.2268   -3.3552    4.8364 C   0  0  0  0  0  0  0  0  0  0  0  0
   -0.0049   -3.7496    4.2797 C   0  0  0  0  0  0  0  0  0  0  0  0
    0.0384   -4.9133    3.6080 F   0  0  0  0  0  0  0  0  0  0  0  0
   -3.0066   -5.0452    6.8748 C   0  0  1  0  0  0  0  0  0  0  0  0
   -4.0677   -5.2496    7.8358 O   0  0  0  0  0  0  0  0  0  0  0  0
   -2.2597   -6.2355    6.5419 O   0  0  0  0  0  0  0  0  0  0  0  0
   -1.6688   -5.3496    7.3406 C   0  0  0  0  0  0  0  0  0  0  0  0
   -0.6224   -4.7267    7.2780 O   0  0  0  0  0  0  0  0  0  0  0  0
    2.3149    2.7369    1.9459 C   0  0  0  0  0  0  0  0  0  0  0  0
    1.4370    2.0695    1.4192 O   0  0  0  0  0  0  0  0  0  0  0  0
    3.0617    3.8036    1.1671 C   0  0  0  0  0  0  0  0  0  0  0  0
    2.6452    4.1761    0.0811 O   0  0  0  0  0  0  0  0  0  0  0  0
    4.2925    4.4538    1.7685 C   0  0  0  0  0  0  0  0  0  0  0  0
    4.8506    5.4021    1.2426 O   0  0  0  0  0  0  0  0  0  0  0  0
  1  2  1  0  0  0  0
  2  3  2  0  0  0  0
  3  4  1  0  0  0  0
  3 53  1  0  0  0  0
  4  5  1  0  0  0  0
  5  6  1  6  0  0  0
  5 49  1  0  0  0  0
  6  7  1  0  0  0  0
  7  8  2  0  0  0  0
  7 12  1  0  0  0  0
  8  9  1  0  0  0  0
  8 26  1  0  0  0  0
  9 10  1  0  0  0  0
 10 11  2  0  0  0  0
 10 21  1  0  0  0  0
 11 12  1  0  0  0  0
 11 13  1  0  0  0  0
 13 14  1  0  0  0  0
 13 19  1  0  0  0  0
 14 15  1  0  0  0  0
 15 16  2  0  0  0  0
 15 17  1  0  0  0  0
 17 18  1  0  0  0  0
 18 19  1  0  0  0  0
 18 25  1  0  0  0  0
 19 20  2  0  0  0  0
 20 21  1  0  0  0  0
 20 22  1  0  0  0  0
 22 23  1  0  0  0  0
 22 24  1  0  0  0  0
 23 24  1  0  0  0  0
 26 27  2  0  0  0  0
 26 32  1  0  0  0  0
 27 28  1  0  0  0  0
 28 29  1  0  0  0  0
 28 30  2  0  0  0  0
 30 31  1  0  0  0  0
 31 32  2  0  0  0  0
 31 42  1  0  0  0  0
 32 33  1  0  0  0  0
 33 34  2  0  0  0  0
 34 35  1  0  0  0  0
 34 41  1  0  0  0  0
 35 36  2  0  0  0  0
 35 37  1  0  0  0  0
 37 38  2  0  0  0  0
 39 37  1  1  0  0  0
 39 40  1  0  0  0  0
 39 44  1  0  0  0  0
 40 41  1  0  0  0  0
 41 42  2  0  0  0  0
 42 43  1  0  0  0  0
 44 45  1  1  0  0  0
 44 46  1  0  0  0  0
 44 47  1  0  0  0  0
 46 47  1  0  0  0  0
 47 48  2  0  0  0  0
 49 50  2  0  0  0  0
 49 51  1  0  0  0  0
 51 52  2  0  0  0  0
 51 53  1  0  0  0  0
 53 54  2  0  0  0  0
M  CHG  1  21   1
M  END
$$$$