
 OpenBabel11222001473D

 54 62  0  0  1  0  0  0  0  0999 V2000
    0.1185   -1.2374    6.6034 O   0  0  0  0  0  0  0  0  0  0  0  0
    0.2945   -1.7715    5.3528 C   0  0  0  0  0  0  0  0  0  0  0  0
    0.5506   -1.0208    4.2738 C   0  0  0  0  0  0  0  0  0  0  0  0
    0.5984    0.3580    4.3658 O   0  0  0  0  0  0  0  0  0  0  0  0
    1.5538    0.9971    3.5148 C   0  0  2  0  0  0  0  0  0  0  0  0
    1.6492    2.4042    3.7806 O   0  0  0  0  0  0  0  0  0  0  0  0
    2.0770    2.7916    5.0524 C   0  0  0  0  0  0  0  0  0  0  0  0
    2.2128    4.0971    5.3849 C   0  0  0  0  0  0  0  0  0  0  0  0
    2.6682    4.5260    6.6350 O   0  0  0  0  0  0  0  0  0  0  0  0
    3.1733    3.5875    7.5289 C   0  0  0  0  0  0  0  0  0  0  0  0
    3.0934    2.2759    7.2766 C   0  0  0  0  0  0  0  0  0  0  0  0
    2.4250    1.7312    6.0709 C   0  0  0  0  0  0  0  0  0  0  0  0
    3.7623    1.3279    8.2044 C   0  0  0  0  0  0  0  0  0  0  0  0
    3.7891    0.0601    7.9239 N   0  0  0  0  0  0  0  0  0  0  0  0
    4.4611   -0.7523    8.7837 C   0  0  0  0  0  0  0  0  0  0  0  0
    4.5261   -1.9791    8.4186 N   0  0  0  0  0  0  0  0  0  0  0  0
    5.0721   -0.4097    9.9488 N   0  0  0  0  0  0  0  0  0  0  0  0
    5.0427    0.8392   10.2293 C   0  0  0  0  0  0  0  0  0  0  0  0
    4.4232    1.8873    9.4177 C   0  0  0  0  0  0  0  0  0  0  0  0
    4.4093    3.2270    9.6042 C   0  0  0  0  0  0  0  0  0  0  0  0
    3.7951    4.0472    8.6595 N   0  0  0  0  0  0  0  0  0  0  0  0
    5.0285    3.9422   10.7496 C   0  0  0  0  0  0  0  0  0  0  0  0
    4.8914    5.3690   10.9110 O   0  0  0  0  0  0  0  0  0  0  0  0
    4.2380    4.4696   11.8263 O   0  0  0  0  0  0  0  0  0  0  0  0
    5.6462    1.2253   11.3559 O   0  0  0  0  0  0  0  0  0  0  0  0
    1.9706    5.2005    4.4337 C   0  0  0  0  0  0  0  0  0  0  0  0
    3.0621    5.6621    3.6893 C   0  0  0  0  0  0  0  0  0  0  0  0
    2.8500    6.6687    2.7768 C   0  0  0  0  0  0  0  0  0  0  0  0
    3.8945    7.1387    2.0818 F   0  0  0  0  0  0  0  0  0  0  0  0
    1.6498    7.2199    2.5411 N   0  0  0  0  0  0  0  0  0  0  0  0
    0.5967    6.7633    3.2541 C   0  0  0  0  0  0  0  0  0  0  0  0
    0.7001    5.7686    4.2575 C   0  0  0  0  0  0  0  0  0  0  0  0
   -0.3621    5.3920    5.0081 N   0  0  0  0  0  0  0  0  0  0  0  0
   -1.5655    5.9457    4.7308 C   0  0  0  0  0  0  0  0  0  0  0  0
   -2.6928    5.5949    5.6040 C   0  0  0  0  0  0  0  0  0  0  0  0
   -2.5642    5.2008    6.7520 O   0  0  0  0  0  0  0  0  0  0  0  0
   -4.0664    5.7477    4.9991 C   0  0  0  0  0  0  0  0  0  0  0  0
   -5.0279    5.1466    5.4624 O   0  0  0  0  0  0  0  0  0  0  0  0
   -4.1357    6.5474    3.7167 C   0  0  1  0  0  0  0  0  0  0  0  0
   -3.0126    7.3886    3.4304 O   0  0  0  0  0  0  0  0  0  0  0  0
   -1.7892    6.8521    3.7180 C   0  0  0  0  0  0  0  0  0  0  0  0
   -0.6748    7.3118    3.0090 C   0  0  0  0  0  0  0  0  0  0  0  0
   -0.8629    8.1702    1.8921 N   0  0  0  0  0  0  0  0  0  0  0  0
   -4.4727    5.6918    2.5284 C   0  0  1  0  0  0  0  0  0  0  0  0
   -4.5871    6.3849    1.2625 O   0  0  0  0  0  0  0  0  0  0  0  0
   -3.8250    4.4220    2.4926 O   0  0  0  0  0  0  0  0  0  0  0  0
   -5.1751    4.4041    2.5956 C   0  0  0  0  0  0  0  0  0  0  0  0
   -5.9901    3.9223    1.8431 O   0  0  0  0  0  0  0  0  0  0  0  0
    1.1261    0.7134    2.0883 C   0  0  0  0  0  0  0  0  0  0  0  0
    0.8516    1.5257    1.2204 O   0  0  0  0  0  0  0  0  0  0  0  0
    1.0814   -0.7705    1.8225 C   0  0  0  0  0  0  0  0  0  0  0  0
    1.4160   -1.2083    0.7333 O   0  0  0  0  0  0  0  0  0  0  0  0
    0.7273   -1.7069    2.9630 C   0  0  0  0  0  0  0  0  0  0  0  0
    0.6324   -2.9124    2.8036 O   0  0  0  0  0  0  0  0  0  0  0  0
  1  2  1  0  0  0  0
  2  3  2  0  0  0  0
  3  4  1  0  0  0  0
  3 53  1  0  0  0  0
  4  5  1  0  0  0  0
  5  6  1  1  0  0  0
  5 49  1  0  0  0  0
  6  7  1  0  0  0  0
  7  8  2  0  0  0  0
  7 12  1  0  0  0  0
  8  9  1  0  0  0  0
  8 26  1  0  0  0  0
  9 10  1  0  0  0  0
 10 11  2  0  0  0  0
 10 21  1  0  0  0  0
 11 12  1  0  0  0  0
 11 13  1  0  0  0  0
 13 14  2  0  0  0  0
 13 19  1  0  0  0  0
 14 15  1  0  0  0  0
 15 16  2  0  0  0  0
 15 17  1  0  0  0  0
 17 18  2  0  0  0  0
 18 19  1  0  0  0  0
 18 25  1  0  0  0  0
 19 20  2  0  0  0  0
 20 21  1  0  0  0  0
 20 22  1  0  0  0  0
 22 23  1  0  0  0  0
 22 24  1  0  0  0  0
 23 24  1  0  0  0  0
 26 27  2  0  0  0  0
 26 32  1  0  0  0  0
 27 28  1  0  0  0  0
 28 29  1  0  0  0  0
 28 30  2  0  0  0  0
 30 31  1  0  0  0  0
 31 32  2  0  0  0  0
 31 42  1  0  0  0  0
 32 33  1  0  0  0  0
 33 34  2  0  0  0  0
 34 35  1  0  0  0  0
 34 41  1  0  0  0  0
 35 36  2  0  0  0  0
 35 37  1  0  0  0  0
 37 38  2  0  0  0  0
 39 37  1  1  0  0  0
 39 40  1  0  0  0  0
 39 44  1  0  0  0  0
 40 41  1  0  0  0  0
 41 42  2  0  0  0  0
 42 43  1  0  0  0  0
 44 45  1  6  0  0  0
 44 46  1  0  0  0  0
 44 47  1  0  0  0  0
 46 47  1  0  0  0  0
 47 48  2  0  0  0  0
 49 50  2  0  0  0  0
 49 51  1  0  0  0  0
 51 52  2  0  0  0  0
 51 53  1  0  0  0  0
 53 54  2  0  0  0  0
M  END
$$$$