
 OpenBabel11212021553D

 54 62  0  0  1  0  0  0  0  0999 V2000
    3.3669    7.7882   -2.9341 O   0  0  0  0  0  0  0  0  0  0  0  0
    2.7424    6.7786   -3.6190 C   0  0  0  0  0  0  0  0  0  0  0  0
    2.3539    5.6430   -3.0261 C   0  0  0  0  0  0  0  0  0  0  0  0
    2.6218    5.4276   -1.6859 O   0  0  0  0  0  0  0  0  0  0  0  0
    1.7357    4.5401   -1.0049 C   0  0  2  0  0  0  0  0  0  0  0  0
    2.1168    4.4000    0.3704 O   0  0  0  0  0  0  0  0  0  0  0  0
    2.0487    5.5587    1.1387 C   0  0  0  0  0  0  0  0  0  0  0  0
    2.9019    5.7802    2.1619 C   0  0  0  0  0  0  0  0  0  0  0  0
    2.8730    6.9267    2.9487 O   0  0  0  0  0  0  0  0  0  0  0  0
    1.8551    7.8466    2.7591 C   0  0  0  0  0  0  0  0  0  0  0  0
    0.9048    7.6799    1.8246 C   0  0  0  0  0  0  0  0  0  0  0  0
    0.9287    6.5321    0.8729 C   0  0  0  0  0  0  0  0  0  0  0  0
   -0.2112    8.6815    1.6717 C   0  0  3  0  0  0  0  0  0  0  0  0
   -1.4429    7.9752    1.8601 O   0  0  0  0  0  0  0  0  0  0  0  0
   -2.5657    8.6330    2.1961 C   0  0  0  0  0  0  0  0  0  0  0  0
   -3.6709    7.9866    2.2685 N   0  0  0  0  0  0  0  0  0  0  0  0
   -2.5254    9.9471    2.4713 O   0  0  0  0  0  0  0  0  0  0  0  0
   -1.3149   10.6969    2.4635 C   0  0  3  0  0  0  0  0  0  0  0  0
   -0.1411    9.8157    2.6334 C   0  0  0  0  0  0  0  0  0  0  0  0
    0.8715    9.9442    3.5197 C   0  0  0  0  0  0  0  0  0  0  0  0
    1.8426    8.9548    3.5682 N   0  0  0  0  0  0  0  0  0  0  0  0
    1.0275   11.0689    4.4676 C   0  0  0  0  0  0  0  0  0  0  0  0
    2.2055   11.8933    4.4697 O   0  0  0  0  0  0  0  0  0  0  0  0
    0.9428   12.4420    4.0494 O   0  0  0  0  0  0  0  0  0  0  0  0
   -1.1961   11.3742    1.2249 O   0  0  0  0  0  0  0  0  0  0  0  0
    3.9244    4.8060    2.5740 C   0  0  0  0  0  0  0  0  0  0  0  0
    3.5109    3.9548    3.5337 N   0  0  0  0  0  0  0  0  0  0  0  0
    4.3834    3.0173    3.9032 C   0  0  0  0  0  0  0  0  0  0  0  0
    3.9999    2.1670    4.8653 F   0  0  0  0  0  0  0  0  0  0  0  0
    5.6132    2.8567    3.4023 N   0  0  0  0  0  0  0  0  0  0  0  0
    6.0172    3.7179    2.4588 C   0  0  0  0  0  0  0  0  0  0  0  0
    5.2041    4.7653    2.0044 C   0  0  0  0  0  0  0  0  0  0  0  0
    5.7046    5.6862    1.0493 C   0  0  0  0  0  0  0  0  0  0  0  0
    6.9914    5.5356    0.5287 C   0  0  0  0  0  0  0  0  0  0  0  0
    7.5359    6.5291   -0.4061 C   0  0  0  0  0  0  0  0  0  0  0  0
    6.9132    7.5289   -0.7254 O   0  0  0  0  0  0  0  0  0  0  0  0
    8.9297    6.2663   -0.9289 C   0  0  0  0  0  0  0  0  0  0  0  0
    9.6047    7.1619   -1.4141 O   0  0  0  0  0  0  0  0  0  0  0  0
    9.3601    4.8235   -0.8265 C   0  0  1  0  0  0  0  0  0  0  0  0
    9.0203    4.1933    0.4121 O   0  0  0  0  0  0  0  0  0  0  0  0
    7.7750    4.4592    0.9133 C   0  0  0  0  0  0  0  0  0  0  0  0
    7.2859    3.5855    1.8898 C   0  0  0  0  0  0  0  0  0  0  0  0
    8.0765    2.5713    2.2842 F   0  0  0  0  0  0  0  0  0  0  0  0
    8.8464    4.0302   -1.9852 C   0  0  1  0  0  0  0  0  0  0  0  0
    7.4070    3.9923   -2.1635 O   0  0  0  0  0  0  0  0  0  0  0  0
    9.6140    4.1681   -3.1801 O   0  0  0  0  0  0  0  0  0  0  0  0
    9.5851    2.9356   -2.6238 C   0  0  0  0  0  0  0  0  0  0  0  0
    9.1796    1.9012   -3.0873 O   0  0  0  0  0  0  0  0  0  0  0  0
    1.7572    3.1905   -1.6962 C   0  0  0  0  0  0  0  0  0  0  0  0
    2.0207    2.1079   -1.1983 O   0  0  0  0  0  0  0  0  0  0  0  0
    1.3884    3.3135   -3.1505 C   0  0  0  0  0  0  0  0  0  0  0  0
    0.8120    2.3998   -3.7184 O   0  0  0  0  0  0  0  0  0  0  0  0
    1.6866    4.6119   -3.8715 C   0  0  0  0  0  0  0  0  0  0  0  0
    1.3798    4.7813   -5.0404 O   0  0  0  0  0  0  0  0  0  0  0  0
  1  2  1  0  0  0  0
  2  3  2  0  0  0  0
  3  4  1  0  0  0  0
  3 53  1  0  0  0  0
  4  5  1  0  0  0  0
  5  6  1  1  0  0  0
  5 49  1  0  0  0  0
  6  7  1  0  0  0  0
  7  8  2  0  0  0  0
  7 12  1  0  0  0  0
  8  9  1  0  0  0  0
  8 26  1  0  0  0  0
  9 10  1  0  0  0  0
 10 11  2  0  0  0  0
 10 21  1  0  0  0  0
 11 12  1  0  0  0  0
 11 13  1  0  0  0  0
 13 14  1  0  0  0  0
 13 19  1  0  0  0  0
 14 15  1  0  0  0  0
 15 16  2  0  0  0  0
 15 17  1  0  0  0  0
 17 18  1  0  0  0  0
 18 19  1  0  0  0  0
 18 25  1  0  0  0  0
 19 20  2  0  0  0  0
 20 21  1  0  0  0  0
 20 22  1  0  0  0  0
 22 23  1  0  0  0  0
 22 24  1  0  0  0  0
 23 24  1  0  0  0  0
 26 27  2  0  0  0  0
 26 32  1  0  0  0  0
 27 28  1  0  0  0  0
 28 29  1  0  0  0  0
 28 30  2  0  0  0  0
 30 31  1  0  0  0  0
 31 32  2  0  0  0  0
 31 42  1  0  0  0  0
 32 33  1  0  0  0  0
 33 34  2  0  0  0  0
 34 35  1  0  0  0  0
 34 41  1  0  0  0  0
 35 36  2  0  0  0  0
 35 37  1  0  0  0  0
 37 38  2  0  0  0  0
 39 37  1  1  0  0  0
 39 40  1  0  0  0  0
 39 44  1  0  0  0  0
 40 41  1  0  0  0  0
 41 42  2  0  0  0  0
 42 43  1  0  0  0  0
 44 45  1  6  0  0  0
 44 46  1  0  0  0  0
 44 47  1  0  0  0  0
 46 47  1  0  0  0  0
 47 48  2  0  0  0  0
 49 50  2  0  0  0  0
 49 51  1  0  0  0  0
 51 52  2  0  0  0  0
 51 53  1  0  0  0  0
 53 54  2  0  0  0  0
M  END
$$$$