
 OpenBabel11152013113D

 54 62  0  0  1  0  0  0  0  0999 V2000
   -1.1283    2.7751   -4.7292 O   0  0  0  0  0  0  0  0  0  0  0  0
   -0.7607    2.6824   -3.4113 C   0  0  0  0  0  0  0  0  0  0  0  0
    0.0176    1.6991   -2.9419 C   0  0  0  0  0  0  0  0  0  0  0  0
    0.4555    0.6915   -3.7778 O   0  0  0  0  0  0  0  0  0  0  0  0
    1.7573    0.1978   -3.4761 C   0  0  2  0  0  0  0  0  0  0  0  0
    2.1636   -0.8096   -4.4072 O   0  0  0  0  0  0  0  0  0  0  0  0
    2.2252   -0.4261   -5.7404 C   0  0  0  0  0  0  0  0  0  0  0  0
    1.9492   -1.3065   -6.7209 C   0  0  0  0  0  0  0  0  0  0  0  0
    2.0377   -0.9960   -8.0690 O   0  0  0  0  0  0  0  0  0  0  0  0
    2.3345    0.3005   -8.4579 C   0  0  0  0  0  0  0  0  0  0  0  0
    2.6317    1.2574   -7.5637 C   0  0  0  0  0  0  0  0  0  0  0  0
    2.6548    0.9790   -6.0898 C   0  0  0  0  0  0  0  0  0  0  0  0
    2.8947    2.6675   -7.9937 C   0  0  3  0  0  0  0  0  0  0  0  0
    4.2118    3.0067   -7.5790 O   0  0  0  0  0  0  0  0  0  0  0  0
    4.7174    4.2116   -7.9415 C   0  0  0  0  0  0  0  0  0  0  0  0
    5.7004    4.6830   -7.3867 O   0  0  0  0  0  0  0  0  0  0  0  0
    4.0919    4.8611   -8.9506 O   0  0  0  0  0  0  0  0  0  0  0  0
    3.1141    4.2628   -9.7984 C   0  0  3  0  0  0  0  0  0  0  0  0
    2.8283    2.8523   -9.4587 C   0  0  0  0  0  0  0  0  0  0  0  0
    2.5373    1.8455  -10.3089 C   0  0  0  0  0  0  0  0  0  0  0  0
    2.2983    0.5591   -9.8178 O   0  0  0  0  0  0  0  0  0  0  0  0
    2.4186    1.9540  -11.7803 C   0  0  0  0  0  0  0  0  0  0  0  0
    1.1370    2.1491  -12.4049 O   0  0  0  0  0  0  0  0  0  0  0  0
    2.1404    3.1765  -12.4811 O   0  0  0  0  0  0  0  0  0  0  0  0
    1.9014    4.9824   -9.6520 O   0  0  0  0  0  0  0  0  0  0  0  0
    1.4882   -2.6799   -6.4776 C   0  0  0  0  0  0  0  0  0  0  0  0
    0.1446   -2.8065   -6.4515 N   0  0  0  0  0  0  0  0  0  0  0  0
   -0.3744   -3.9908   -6.3353 N   0  0  0  0  0  0  0  0  0  0  0  0
    0.3649   -5.0739   -6.2794 N   0  0  0  0  0  0  0  0  0  0  0  0
    1.7050   -4.9979   -6.3105 C   0  0  0  0  0  0  0  0  0  0  0  0
    2.3528   -3.7687   -6.3929 C   0  0  0  0  0  0  0  0  0  0  0  0
    3.7743   -3.7079   -6.4112 C   0  0  0  0  0  0  0  0  0  0  0  0
    4.5313   -4.8808   -6.3863 C   0  0  0  0  0  0  0  0  0  0  0  0
    5.9966   -4.8360   -6.4074 C   0  0  0  0  0  0  0  0  0  0  0  0
    6.6112   -3.8001   -6.2138 O   0  0  0  0  0  0  0  0  0  0  0  0
    6.7185   -6.1249   -6.7399 C   0  0  0  0  0  0  0  0  0  0  0  0
    7.9248   -6.1403   -6.9470 O   0  0  0  0  0  0  0  0  0  0  0  0
    5.8246   -7.3195   -6.9839 C   0  0  1  0  0  0  0  0  0  0  0  0
    4.5623   -7.3028   -6.3059 O   0  0  0  0  0  0  0  0  0  0  0  0
    3.8974   -6.1088   -6.3441 C   0  0  0  0  0  0  0  0  0  0  0  0
    2.4997   -6.1530   -6.2879 C   0  0  0  0  0  0  0  0  0  0  0  0
    1.8872   -7.3870   -6.2423 O   0  0  0  0  0  0  0  0  0  0  0  0
    5.6222   -7.6053   -8.4445 C   0  0  1  0  0  0  0  0  0  0  0  0
    4.7022   -8.6830   -8.7502 O   0  0  0  0  0  0  0  0  0  0  0  0
    5.5268   -6.4544   -9.2795 O   0  0  0  0  0  0  0  0  0  0  0  0
    6.5765   -7.2760   -9.5052 C   0  0  0  0  0  0  0  0  0  0  0  0
    6.8568   -7.8921  -10.5132 O   0  0  0  0  0  0  0  0  0  0  0  0
    1.7316   -0.3673   -2.0629 C   0  0  0  0  0  0  0  0  0  0  0  0
    2.0301   -1.5277   -1.7769 O   0  0  0  0  0  0  0  0  0  0  0  0
    1.4089    0.6878   -1.0282 C   0  0  3  0  0  0  0  0  0  0  0  0
    0.3794    1.7129   -1.4872 C   0  0  0  0  0  0  0  0  0  0  0  0
   -0.0898    2.5629   -0.7271 O   0  0  0  0  0  0  0  0  0  0  0  0
    2.6182    1.3844   -0.7451 O   0  0  0  0  0  0  0  0  0  0  0  0
    1.0540    0.1394    0.1691 F   0  0  0  0  0  0  0  0  0  0  0  0
  1  2  1  0  0  0  0
  2  3  2  0  0  0  0
  3  4  1  0  0  0  0
  3 51  1  0  0  0  0
  4  5  1  0  0  0  0
  5  6  1  6  0  0  0
  5 48  1  0  0  0  0
  6  7  1  0  0  0  0
  7  8  2  0  0  0  0
  7 12  1  0  0  0  0
  8  9  1  0  0  0  0
  8 26  1  0  0  0  0
  9 10  1  0  0  0  0
 10 11  2  0  0  0  0
 10 21  1  0  0  0  0
 11 12  1  0  0  0  0
 11 13  1  0  0  0  0
 13 14  1  0  0  0  0
 13 19  1  0  0  0  0
 14 15  1  0  0  0  0
 15 16  2  0  0  0  0
 15 17  1  0  0  0  0
 17 18  1  0  0  0  0
 18 19  1  0  0  0  0
 18 25  1  0  0  0  0
 19 20  2  0  0  0  0
 20 21  1  0  0  0  0
 20 22  1  0  0  0  0
 22 23  1  0  0  0  0
 22 24  1  0  0  0  0
 23 24  1  0  0  0  0
 26 27  2  0  0  0  0
 26 31  1  0  0  0  0
 27 28  1  0  0  0  0
 28 29  2  0  0  0  0
 29 30  1  0  0  0  0
 30 31  2  0  0  0  0
 30 41  1  0  0  0  0
 31 32  1  0  0  0  0
 32 33  2  0  0  0  0
 33 34  1  0  0  0  0
 33 40  1  0  0  0  0
 34 35  2  0  0  0  0
 34 36  1  0  0  0  0
 36 37  2  0  0  0  0
 38 36  1  6  0  0  0
 38 39  1  0  0  0  0
 38 43  1  0  0  0  0
 39 40  1  0  0  0  0
 40 41  2  0  0  0  0
 41 42  1  0  0  0  0
 43 44  1  6  0  0  0
 43 45  1  0  0  0  0
 43 46  1  0  0  0  0
 45 46  1  0  0  0  0
 46 47  2  0  0  0  0
 48 49  2  0  0  0  0
 48 50  1  0  0  0  0
 50 51  1  0  0  0  0
 50 53  1  0  0  0  0
 50 54  1  0  0  0  0
 51 52  2  0  0  0  0
M  END
$$$$