
 OpenBabel11212016143D

 54 62  0  0  1  0  0  0  0  0999 V2000
   -2.7657   -1.1607   -3.3886 O   0  0  0  0  0  0  0  0  0  0  0  0
   -2.0903   -0.3185   -2.5428 C   0  0  0  0  0  0  0  0  0  0  0  0
   -0.8069   -0.5095   -2.2164 C   0  0  0  0  0  0  0  0  0  0  0  0
   -0.1100   -1.5933   -2.7306 O   0  0  0  0  0  0  0  0  0  0  0  0
    1.2738   -1.3391   -2.9456 C   0  0  2  0  0  0  0  0  0  0  0  0
    1.8995   -2.4785   -3.5601 O   0  0  0  0  0  0  0  0  0  0  0  0
    1.8754   -2.5277   -4.9485 C   0  0  0  0  0  0  0  0  0  0  0  0
    1.8269   -3.7054   -5.6087 C   0  0  0  0  0  0  0  0  0  0  0  0
    1.9114   -3.8028   -6.9967 O   0  0  0  0  0  0  0  0  0  0  0  0
    2.2462   -2.6689   -7.7319 C   0  0  0  0  0  0  0  0  0  0  0  0
    2.3727   -1.4606   -7.1584 C   0  0  0  0  0  0  0  0  0  0  0  0
    2.0741   -1.2414   -5.7155 C   0  0  0  0  0  0  0  0  0  0  0  0
    2.8107   -0.2578   -7.9613 C   0  0  3  0  0  0  0  0  0  0  0  0
    4.0205    0.2156   -7.3701 O   0  0  0  0  0  0  0  0  0  0  0  0
    4.8719    1.0340   -8.0383 C   0  0  0  0  0  0  0  0  0  0  0  0
    5.8396    1.5246   -7.4724 O   0  0  0  0  0  0  0  0  0  0  0  0
    4.6276    1.2620   -9.3512 O   0  0  0  0  0  0  0  0  0  0  0  0
    3.5529    0.6715  -10.0687 C   0  0  3  0  0  0  0  0  0  0  0  0
    3.0661   -0.5498   -9.3944 C   0  0  0  0  0  0  0  0  0  0  0  0
    2.8814   -1.7816   -9.9192 C   0  0  0  0  0  0  0  0  0  0  0  0
    2.4679   -2.8107   -9.0788 N   0  0  0  0  0  0  0  0  0  0  0  0
    3.1020   -2.1306  -11.3421 C   0  0  0  0  0  0  0  0  0  0  0  0
    4.3806   -2.5804  -11.8154 O   0  0  0  0  0  0  0  0  0  0  0  0
    3.2656   -3.4925  -11.7750 O   0  0  0  0  0  0  0  0  0  0  0  0
    2.4772    1.5917  -10.1384 O   0  0  0  0  0  0  0  0  0  0  0  0
    1.7745   -5.0071   -4.9159 C   0  0  0  0  0  0  0  0  0  0  0  0
    2.9856   -5.6026   -4.5765 C   0  0  0  0  0  0  0  0  0  0  0  0
    3.0111   -6.7657   -3.9188 N   0  3  0  0  0  0  0  0  0  0  0  0
    4.1982   -7.3356   -3.6366 F   0  0  0  0  0  0  0  0  0  0  0  0
    1.9145   -7.3891   -3.5326 N   0  0  0  0  0  0  0  0  0  0  0  0
    0.7194   -6.8670   -3.8251 C   0  0  0  0  0  0  0  0  0  0  0  0
    0.5840   -5.6695   -4.5526 C   0  0  0  0  0  0  0  0  0  0  0  0
   -0.7200   -5.2162   -4.8716 C   0  0  0  0  0  0  0  0  0  0  0  0
   -1.8546   -5.9179   -4.4343 C   0  0  0  0  0  0  0  0  0  0  0  0
   -3.2000   -5.4582   -4.7856 C   0  0  0  0  0  0  0  0  0  0  0  0
   -3.3636   -4.5930   -5.6300 O   0  0  0  0  0  0  0  0  0  0  0  0
   -4.3654   -6.1127   -4.0763 C   0  0  0  0  0  0  0  0  0  0  0  0
   -5.5128   -5.8624   -4.4163 O   0  0  0  0  0  0  0  0  0  0  0  0
   -3.9873   -7.0246   -2.9280 C   0  0  1  0  0  0  0  0  0  0  0  0
   -2.7676   -7.7581   -3.1393 O   0  0  0  0  0  0  0  0  0  0  0  0
   -1.7183   -7.0618   -3.6697 C   0  0  0  0  0  0  0  0  0  0  0  0
   -0.4315   -7.5291   -3.3973 C   0  0  0  0  0  0  0  0  0  0  0  0
   -0.2934   -8.6479   -2.6658 F   0  0  0  0  0  0  0  0  0  0  0  0
   -4.0250   -6.3072   -1.5964 C   0  0  1  0  0  0  0  0  0  0  0  0
   -5.2896   -5.7339   -1.2145 O   0  0  0  0  0  0  0  0  0  0  0  0
   -3.3196   -6.9439   -0.5196 O   0  0  0  0  0  0  0  0  0  0  0  0
   -2.8515   -5.7630   -0.9390 C   0  0  0  0  0  0  0  0  0  0  0  0
   -1.7516   -5.4280   -1.3477 O   0  0  0  0  0  0  0  0  0  0  0  0
    1.9279   -1.0441   -1.6115 C   0  0  0  0  0  0  0  0  0  0  0  0
    2.8683   -1.6438   -1.1156 O   0  0  0  0  0  0  0  0  0  0  0  0
    1.2816    0.1424   -0.9422 C   0  0  0  0  0  0  0  0  0  0  0  0
    1.9397    0.8676   -0.2157 O   0  0  0  0  0  0  0  0  0  0  0  0
   -0.1671    0.4589   -1.2729 C   0  0  0  0  0  0  0  0  0  0  0  0
   -0.7296    1.4418   -0.8214 O   0  0  0  0  0  0  0  0  0  0  0  0
  1  2  1  0  0  0  0
  2  3  2  0  0  0  0
  3  4  1  0  0  0  0
  3 53  1  0  0  0  0
  4  5  1  0  0  0  0
  5  6  1  1  0  0  0
  5 49  1  0  0  0  0
  6  7  1  0  0  0  0
  7  8  2  0  0  0  0
  7 12  1  0  0  0  0
  8  9  1  0  0  0  0
  8 26  1  0  0  0  0
  9 10  1  0  0  0  0
 10 11  2  0  0  0  0
 10 21  1  0  0  0  0
 11 12  1  0  0  0  0
 11 13  1  0  0  0  0
 13 14  1  0  0  0  0
 13 19  1  0  0  0  0
 14 15  1  0  0  0  0
 15 16  2  0  0  0  0
 15 17  1  0  0  0  0
 17 18  1  0  0  0  0
 18 19  1  0  0  0  0
 18 25  1  0  0  0  0
 19 20  2  0  0  0  0
 20 21  1  0  0  0  0
 20 22  1  0  0  0  0
 22 23  1  0  0  0  0
 22 24  1  0  0  0  0
 23 24  1  0  0  0  0
 26 27  2  0  0  0  0
 26 32  1  0  0  0  0
 27 28  1  0  0  0  0
 28 29  1  0  0  0  0
 28 30  2  0  0  0  0
 30 31  1  0  0  0  0
 31 32  2  0  0  0  0
 31 42  1  0  0  0  0
 32 33  1  0  0  0  0
 33 34  2  0  0  0  0
 34 35  1  0  0  0  0
 34 41  1  0  0  0  0
 35 36  2  0  0  0  0
 35 37  1  0  0  0  0
 37 38  2  0  0  0  0
 39 37  1  6  0  0  0
 39 40  1  0  0  0  0
 39 44  1  0  0  0  0
 40 41  1  0  0  0  0
 41 42  2  0  0  0  0
 42 43  1  0  0  0  0
 44 45  1  1  0  0  0
 44 46  1  0  0  0  0
 44 47  1  0  0  0  0
 46 47  1  0  0  0  0
 47 48  2  0  0  0  0
 49 50  2  0  0  0  0
 49 51  1  0  0  0  0
 51 52  2  0  0  0  0
 51 53  1  0  0  0  0
 53 54  2  0  0  0  0
M  CHG  1  28   1
M  END
$$$$