
 OpenBabel11232001203D

 52 61  0  0  1  0  0  0  0  0999 V2000
   18.4070   -0.6032    3.5581 O   0  0  0  0  0  0  0  0  0  0  0  0
   17.4493    0.2911    3.9618 C   0  0  0  0  0  0  0  0  0  0  0  0
   16.3445    0.5308    3.2456 C   0  0  0  0  0  0  0  0  0  0  0  0
   16.1437   -0.1082    2.0414 O   0  0  0  0  0  0  0  0  0  0  0  0
   14.7956   -0.2449    1.6137 C   0  0  2  0  0  0  0  0  0  0  0  0
   14.7056   -0.9711    0.3783 O   0  0  0  0  0  0  0  0  0  0  0  0
   15.2898   -0.4377   -0.7644 C   0  0  0  0  0  0  0  0  0  0  0  0
   14.7628   -0.6835   -1.9803 C   0  0  0  0  0  0  0  0  0  0  0  0
   15.3303   -0.2372   -3.1628 O   0  0  0  0  0  0  0  0  0  0  0  0
   16.5450    0.4320   -3.1358 C   0  0  0  0  0  0  0  0  0  0  0  0
   17.1690    0.7175   -1.9810 C   0  0  0  0  0  0  0  0  0  0  0  0
   16.5855    0.3294   -0.6550 C   0  0  0  0  0  0  0  0  0  0  0  0
   18.4748    1.4553   -1.9603 C   0  0  3  0  0  0  0  0  0  0  0  0
   19.4297    0.6336   -1.2940 O   0  0  0  0  0  0  0  0  0  0  0  0
   20.7556    0.9102   -1.3583 C   0  0  0  0  0  0  0  0  0  0  0  0
   21.5581    0.3495   -0.6239 O   0  0  0  0  0  0  0  0  0  0  0  0
   21.1621    1.8122   -2.2830 O   0  0  0  0  0  0  0  0  0  0  0  0
   20.2948    2.4358   -3.2176 C   0  0  3  0  0  0  0  0  0  0  0  0
   18.9874    1.7570   -3.3112 C   0  0  0  0  0  0  0  0  0  0  0  0
   18.3230    1.4281   -4.4375 C   0  0  0  0  0  0  0  0  0  0  0  0
   17.0837    0.7874   -4.3628 O   0  0  0  0  0  0  0  0  0  0  0  0
   18.8083    1.7102   -5.8051 C   0  0  0  0  0  0  0  0  0  0  0  0
   19.7227    0.8323   -6.4813 O   0  0  0  0  0  0  0  0  0  0  0  0
   18.3612    0.9481   -6.9381 O   0  0  0  0  0  0  0  0  0  0  0  0
   20.0544    3.7691   -2.8002 O   0  0  0  0  0  0  0  0  0  0  0  0
   13.5589   -1.4986   -2.1921 C   0  0  0  0  0  0  0  0  0  0  0  0
   13.7029   -2.8775   -2.2188 C   0  0  0  0  0  0  0  0  0  0  0  0
   12.6744   -3.7126   -2.4447 N   0  0  0  0  0  0  0  0  0  0  0  0
   11.4329   -3.1938   -2.6645 N   0  0  0  0  0  0  0  0  0  0  0  0
   11.2245   -1.8701   -2.6551 C   0  0  0  0  0  0  0  0  0  0  0  0
   12.2739   -0.9581   -2.4158 C   0  0  0  0  0  0  0  0  0  0  0  0
   11.9854    0.4292   -2.4225 C   0  0  0  0  0  0  0  0  0  0  0  0
   10.6864    0.8858   -2.6638 C   0  0  0  0  0  0  0  0  0  0  0  0
    9.6598   -0.0264   -2.8798 C   0  0  0  0  0  0  0  0  0  0  0  0
    9.9402   -1.3911   -2.8873 C   0  0  0  0  0  0  0  0  0  0  0  0
    8.3553    0.3395   -3.1059 O   0  0  0  0  0  0  0  0  0  0  0  0
    8.0296    1.6672   -2.6356 C   0  0  1  0  0  0  0  0  0  0  0  0
    8.9683    2.7262   -3.0272 C   0  0  0  0  0  0  0  0  0  0  0  0
    8.6548    3.7994   -3.5105 O   0  0  0  0  0  0  0  0  0  0  0  0
   10.3945    2.3299   -2.7080 C   0  0  0  0  0  0  0  0  0  0  0  0
   11.2441    3.1766   -2.4856 O   0  0  0  0  0  0  0  0  0  0  0  0
    6.6655    2.0085   -2.6264 O   0  0  0  0  0  0  0  0  0  0  0  0
    7.3173    1.8411   -1.3293 C   0  0  1  0  0  0  0  0  0  0  0  0
    7.2651    0.5048   -0.6894 O   0  0  0  0  0  0  0  0  0  0  0  0
    6.3007    1.3569   -0.4385 C   0  0  0  0  0  0  0  0  0  0  0  0
    5.8313    1.7712    0.6018 O   0  0  0  0  0  0  0  0  0  0  0  0
   14.0105    1.0647    1.5889 C   0  0  0  0  0  0  0  0  0  0  0  0
   13.1625    1.3759    0.7640 O   0  0  0  0  0  0  0  0  0  0  0  0
   14.3417    1.9710    2.7483 C   0  0  0  0  0  0  0  0  0  0  0  0
   13.7795    3.0491    2.8660 O   0  0  0  0  0  0  0  0  0  0  0  0
   15.3907    1.5508    3.7534 C   0  0  0  0  0  0  0  0  0  0  0  0
   15.4253    2.0207    4.8784 O   0  0  0  0  0  0  0  0  0  0  0  0
  1  2  1  0  0  0  0
  2  3  2  0  0  0  0
  3  4  1  0  0  0  0
  3 51  1  0  0  0  0
  4  5  1  0  0  0  0
  5  6  1  6  0  0  0
  5 47  1  0  0  0  0
  6  7  1  0  0  0  0
  7  8  2  0  0  0  0
  7 12  1  0  0  0  0
  8  9  1  0  0  0  0
  8 26  1  0  0  0  0
  9 10  1  0  0  0  0
 10 11  2  0  0  0  0
 10 21  1  0  0  0  0
 11 12  1  0  0  0  0
 11 13  1  0  0  0  0
 13 14  1  0  0  0  0
 13 19  1  0  0  0  0
 14 15  1  0  0  0  0
 15 16  2  0  0  0  0
 15 17  1  0  0  0  0
 17 18  1  0  0  0  0
 18 19  1  0  0  0  0
 18 25  1  0  0  0  0
 19 20  2  0  0  0  0
 20 21  1  0  0  0  0
 20 22  1  0  0  0  0
 22 23  1  0  0  0  0
 22 24  1  0  0  0  0
 23 24  1  0  0  0  0
 26 27  2  0  0  0  0
 26 31  1  0  0  0  0
 27 28  1  0  0  0  0
 28 29  2  0  0  0  0
 29 30  1  0  0  0  0
 30 31  2  0  0  0  0
 30 35  1  0  0  0  0
 31 32  1  0  0  0  0
 32 33  2  0  0  0  0
 33 34  1  0  0  0  0
 33 40  1  0  0  0  0
 34 35  2  0  0  0  0
 34 36  1  0  0  0  0
 37 36  1  6  0  0  0
 37 38  1  0  0  0  0
 37 42  1  0  0  0  0
 37 43  1  0  0  0  0
 38 39  2  0  0  0  0
 38 40  1  0  0  0  0
 40 41  2  0  0  0  0
 43 42  1  6  0  0  0
 43 44  1  0  0  0  0
 43 45  1  0  0  0  0
 44 45  1  0  0  0  0
 45 46  2  0  0  0  0
 47 48  2  0  0  0  0
 47 49  1  0  0  0  0
 49 50  2  0  0  0  0
 49 51  1  0  0  0  0
 51 52  2  0  0  0  0
M  END
$$$$