
 OpenBabel11232002413D

 54 62  0  0  1  0  0  0  0  0999 V2000
    4.3142   -5.2571   -2.0672 O   0  0  0  0  0  0  0  0  0  0  0  0
    4.1118   -3.8973   -2.0573 C   0  0  0  0  0  0  0  0  0  0  0  0
    3.3073   -3.2907   -1.1771 C   0  0  0  0  0  0  0  0  0  0  0  0
    2.5665   -4.0189   -0.2627 O   0  0  0  0  0  0  0  0  0  0  0  0
    2.8012   -3.5649    1.0642 C   0  0  2  0  0  0  0  0  0  0  0  0
    2.0942   -4.3975    2.0140 O   0  0  0  0  0  0  0  0  0  0  0  0
    2.3817   -5.7533    2.0516 C   0  0  0  0  0  0  0  0  0  0  0  0
    1.4723   -6.6558    2.4942 C   0  0  0  0  0  0  0  0  0  0  0  0
    1.7792   -8.0273    2.5194 O   0  0  0  0  0  0  0  0  0  0  0  0
    2.9107   -8.5198    1.8692 C   0  0  0  0  0  0  0  0  0  0  0  0
    3.8739   -7.6839    1.4513 C   0  0  0  0  0  0  0  0  0  0  0  0
    3.7502   -6.2009    1.5897 C   0  0  0  0  0  0  0  0  0  0  0  0
    5.1160   -8.1702    0.7682 C   0  0  3  0  0  0  0  0  0  0  0  0
    6.2177   -7.8315    1.5882 O   0  0  0  0  0  0  0  0  0  0  0  0
    7.4394   -8.1332    1.0677 C   0  0  0  0  0  0  0  0  0  0  0  0
    8.4542   -7.5769    1.4549 O   0  0  0  0  0  0  0  0  0  0  0  0
    7.4254   -9.0473    0.0678 O   0  0  0  0  0  0  0  0  0  0  0  0
    6.4343  -10.0704    0.0376 C   0  0  3  0  0  0  0  0  0  0  0  0
    5.1444   -9.6425    0.6453 C   0  0  0  0  0  0  0  0  0  0  0  0
    4.1305  -10.4379    1.0580 C   0  0  0  0  0  0  0  0  0  0  0  0
    3.0085   -9.8807    1.6679 O   0  3  0  0  0  0  0  0  0  0  0  0
    4.1305  -11.9072    0.9270 C   0  0  3  0  0  0  0  0  0  0  0  0
    2.9886  -12.5981    1.4292 N   0  0  0  0  0  0  0  0  0  0  0  0
    4.0185  -12.6599    2.1230 N   0  0  0  0  0  0  0  0  0  0  0  0
    6.1120  -10.3486   -1.3111 O   0  0  0  0  0  0  0  0  0  0  0  0
    0.0769   -6.3182    2.9715 C   0  0  0  0  0  0  0  0  0  0  0  0
   -0.1699   -5.0960    3.6043 C   0  0  0  0  0  0  0  0  0  0  0  0
   -1.3954   -4.7594    4.0238 N   0  3  0  0  0  0  0  0  0  0  0  0
   -1.5814   -3.5569    4.6030 F   0  0  0  0  0  0  0  0  0  0  0  0
   -2.4334   -5.5624    3.9118 N   0  0  0  0  0  0  0  0  0  0  0  0
   -2.2826   -6.7700    3.3685 C   0  0  0  0  0  0  0  0  0  0  0  0
   -1.0367   -7.2018    2.8631 C   0  0  0  0  0  0  0  0  0  0  0  0
   -0.9936   -8.4966    2.2974 C   0  0  0  0  0  0  0  0  0  0  0  0
   -2.0917   -9.3595    2.3253 C   0  0  0  0  0  0  0  0  0  0  0  0
   -1.9348  -10.7349    1.8537 C   0  0  0  0  0  0  0  0  0  0  0  0
   -0.8261  -11.1607    1.5609 O   0  0  0  0  0  0  0  0  0  0  0  0
   -3.1986  -11.5648    1.8374 C   0  0  0  0  0  0  0  0  0  0  0  0
   -3.1332  -12.7740    1.9843 O   0  0  0  0  0  0  0  0  0  0  0  0
   -4.4637  -10.7352    1.7250 C   0  0  1  0  0  0  0  0  0  0  0  0
   -4.4597   -9.6690    2.7062 O   0  0  0  0  0  0  0  0  0  0  0  0
   -3.3136   -8.9262    2.7938 C   0  0  0  0  0  0  0  0  0  0  0  0
   -3.3886   -7.6303    3.3072 C   0  0  0  0  0  0  0  0  0  0  0  0
   -4.5748   -7.1812    3.7474 F   0  0  0  0  0  0  0  0  0  0  0  0
   -4.7212  -10.2507    0.3144 C   0  0  1  0  0  0  0  0  0  0  0  0
   -4.8164  -11.2616   -0.7027 O   0  0  0  0  0  0  0  0  0  0  0  0
   -5.6785   -9.1550    0.2109 O   0  0  0  0  0  0  0  0  0  0  0  0
   -4.4388   -8.9003   -0.1678 C   0  0  0  0  0  0  0  0  0  0  0  0
   -3.6375   -8.0488    0.1718 O   0  0  0  0  0  0  0  0  0  0  0  0
    2.2880   -2.1482    1.2612 C   0  0  0  0  0  0  0  0  0  0  0  0
    1.8075   -1.7336    2.3082 O   0  0  0  0  0  0  0  0  0  0  0  0
    2.4264   -1.2791    0.0265 C   0  0  0  0  0  0  0  0  0  0  0  0
    1.8558   -0.2038   -0.0288 O   0  0  0  0  0  0  0  0  0  0  0  0
    3.2343   -1.8023   -1.1493 C   0  0  0  0  0  0  0  0  0  0  0  0
    3.8168   -1.0690   -1.9249 O   0  0  0  0  0  0  0  0  0  0  0  0
  1  2  1  0  0  0  0
  2  3  2  0  0  0  0
  3  4  1  0  0  0  0
  3 53  1  0  0  0  0
  4  5  1  0  0  0  0
  5  6  1  1  0  0  0
  5 49  1  0  0  0  0
  6  7  1  0  0  0  0
  7  8  2  0  0  0  0
  7 12  1  0  0  0  0
  8  9  1  0  0  0  0
  8 26  1  0  0  0  0
  9 10  1  0  0  0  0
 10 11  2  0  0  0  0
 10 21  1  0  0  0  0
 11 12  1  0  0  0  0
 11 13  1  0  0  0  0
 13 14  1  0  0  0  0
 13 19  1  0  0  0  0
 14 15  1  0  0  0  0
 15 16  2  0  0  0  0
 15 17  1  0  0  0  0
 17 18  1  0  0  0  0
 18 19  1  0  0  0  0
 18 25  1  0  0  0  0
 19 20  2  0  0  0  0
 20 21  1  0  0  0  0
 20 22  1  0  0  0  0
 22 23  1  0  0  0  0
 22 24  1  0  0  0  0
 23 24  2  0  0  0  0
 26 27  2  0  0  0  0
 26 32  1  0  0  0  0
 27 28  1  0  0  0  0
 28 29  1  0  0  0  0
 28 30  2  0  0  0  0
 30 31  1  0  0  0  0
 31 32  2  0  0  0  0
 31 42  1  0  0  0  0
 32 33  1  0  0  0  0
 33 34  2  0  0  0  0
 34 35  1  0  0  0  0
 34 41  1  0  0  0  0
 35 36  2  0  0  0  0
 35 37  1  0  0  0  0
 37 38  2  0  0  0  0
 39 37  1  6  0  0  0
 39 40  1  0  0  0  0
 39 44  1  0  0  0  0
 40 41  1  0  0  0  0
 41 42  2  0  0  0  0
 42 43  1  0  0  0  0
 44 45  1  6  0  0  0
 44 46  1  0  0  0  0
 44 47  1  0  0  0  0
 46 47  1  0  0  0  0
 47 48  2  0  0  0  0
 49 50  2  0  0  0  0
 49 51  1  0  0  0  0
 51 52  2  0  0  0  0
 51 53  1  0  0  0  0
 53 54  2  0  0  0  0
M  CHG  2  21   1  28   1
M  END
$$$$