
 OpenBabel11222002263D

 54 62  0  0  1  0  0  0  0  0999 V2000
   -3.9349    3.0908  -15.6980 O   0  0  0  0  0  0  0  0  0  0  0  0
   -2.7832    3.3096  -16.4107 C   0  0  0  0  0  0  0  0  0  0  0  0
   -1.5738    3.0143  -15.9198 C   0  0  0  0  0  0  0  0  0  0  0  0
   -1.4547    2.4946  -14.6480 O   0  0  0  0  0  0  0  0  0  0  0  0
   -0.3235    1.6720  -14.4000 C   0  0  2  0  0  0  0  0  0  0  0  0
   -0.3103    1.1789  -13.0405 O   0  0  0  0  0  0  0  0  0  0  0  0
   -0.2646    2.0824  -11.9839 C   0  0  0  0  0  0  0  0  0  0  0  0
    0.3154    1.7550  -10.8093 C   0  0  0  0  0  0  0  0  0  0  0  0
    0.3245    2.6042   -9.6991 O   0  0  0  0  0  0  0  0  0  0  0  0
   -0.3349    3.8310   -9.7623 C   0  0  0  0  0  0  0  0  0  0  0  0
   -0.9490    4.2381  -10.8868 C   0  0  0  0  0  0  0  0  0  0  0  0
   -0.9555    3.4101  -12.1338 C   0  0  0  0  0  0  0  0  0  0  0  0
   -1.6434    5.5641  -10.9837 C   0  0  3  0  0  0  0  0  0  0  0  0
   -2.9958    5.3499  -11.3505 O   0  0  0  0  0  0  0  0  0  0  0  0
   -3.6964    6.4894  -11.6063 C   0  0  0  0  0  0  0  0  0  0  0  0
   -4.7020    6.5004  -12.2943 O   0  0  0  0  0  0  0  0  0  0  0  0
   -3.1526    7.6100  -11.0638 O   0  0  0  0  0  0  0  0  0  0  0  0
   -2.5414    7.4861   -9.7871 C   0  0  3  0  0  0  0  0  0  0  0  0
   -1.6913    6.2643   -9.6793 C   0  0  0  0  0  0  0  0  0  0  0  0
   -1.0604    5.8005   -8.5749 C   0  0  0  0  0  0  0  0  0  0  0  0
   -0.3370    4.6127   -8.6300 O   0  3  0  0  0  0  0  0  0  0  0  0
   -1.0745    6.4836   -7.2549 C   0  0  0  0  0  0  0  0  0  0  0  0
   -0.9892    5.7174   -6.0406 O   0  0  0  0  0  0  0  0  0  0  0  0
    0.1153    6.5438   -6.4519 O   0  0  0  0  0  0  0  0  0  0  0  0
   -1.6599    8.5747   -9.6022 O   0  0  0  0  0  0  0  0  0  0  0  0
    0.9755    0.4506  -10.5784 C   0  0  0  0  0  0  0  0  0  0  0  0
    0.2059   -0.5864  -10.0278 C   0  0  0  0  0  0  0  0  0  0  0  0
    0.8011   -1.7591   -9.5411 C   0  0  0  0  0  0  0  0  0  0  0  0
    2.0959   -2.1351   -9.5987 N   0  0  0  0  0  0  0  0  0  0  0  0
    3.0073   -1.4767  -10.7940 P   0  3  3  0  0  0  0  0  0  0  0  0
    4.6136   -1.2138  -10.0051 C   0  0  0  0  0  0  0  0  0  0  0  0
    5.3518   -0.0488  -10.2876 C   0  0  0  0  0  0  0  0  0  0  0  0
    4.7700    1.0893  -10.8899 C   0  0  0  0  0  0  0  0  0  0  0  0
    3.3688    1.2753  -11.0589 C   0  0  0  0  0  0  0  0  0  0  0  0
    2.3804    0.2787  -10.7863 C   0  0  0  0  0  0  0  0  0  0  0  0
    5.6493    2.2172  -11.2391 C   0  0  0  0  0  0  0  0  0  0  0  0
    5.2199    3.2561  -11.7152 O   0  0  0  0  0  0  0  0  0  0  0  0
    7.1069    2.0731  -10.8932 C   0  0  0  0  0  0  0  0  0  0  0  0
    7.9540    2.7271  -11.4799 O   0  0  0  0  0  0  0  0  0  0  0  0
    7.3297    1.1599   -9.7177 C   0  0  1  0  0  0  0  0  0  0  0  0
    6.6884   -0.1030   -9.9369 O   0  0  0  0  0  0  0  0  0  0  0  0
    8.7650    0.9329   -9.3544 C   0  0  1  0  0  0  0  0  0  0  0  0
    8.9844    0.1784   -8.1354 O   0  0  0  0  0  0  0  0  0  0  0  0
    9.6655    0.6550  -10.4240 O   0  0  0  0  0  0  0  0  0  0  0  0
    9.8768    1.8095   -9.7483 C   0  0  0  0  0  0  0  0  0  0  0  0
   10.8218    2.1717   -9.0938 O   0  0  0  0  0  0  0  0  0  0  0  0
    5.0679   -2.1878   -9.1106 N   0  0  0  0  0  0  0  0  0  0  0  0
   -0.0091   -2.5851   -8.8574 F   0  0  0  0  0  0  0  0  0  0  0  0
    1.0017    2.3287  -14.7647 C   0  0  0  0  0  0  0  0  0  0  0  0
    2.0289    2.2570  -14.1039 O   0  0  0  0  0  0  0  0  0  0  0  0
    0.9419    3.1335  -16.0387 C   0  0  0  0  0  0  0  0  0  0  0  0
    1.9559    3.6621  -16.4671 O   0  0  0  0  0  0  0  0  0  0  0  0
   -0.3799    3.3369  -16.7467 C   0  0  0  0  0  0  0  0  0  0  0  0
   -0.4350    3.7523  -17.8915 O   0  0  0  0  0  0  0  0  0  0  0  0
  1  2  1  0  0  0  0
  2  3  2  0  0  0  0
  3  4  1  0  0  0  0
  3 53  1  0  0  0  0
  4  5  1  0  0  0  0
  5  6  1  1  0  0  0
  5 49  1  0  0  0  0
  6  7  1  0  0  0  0
  7  8  2  0  0  0  0
  7 12  1  0  0  0  0
  8  9  1  0  0  0  0
  8 26  1  0  0  0  0
  9 10  1  0  0  0  0
 10 11  2  0  0  0  0
 10 21  1  0  0  0  0
 11 12  1  0  0  0  0
 11 13  1  0  0  0  0
 13 14  1  0  0  0  0
 13 19  1  0  0  0  0
 14 15  1  0  0  0  0
 15 16  2  0  0  0  0
 15 17  1  0  0  0  0
 17 18  1  0  0  0  0
 18 19  1  0  0  0  0
 18 25  1  0  0  0  0
 19 20  2  0  0  0  0
 20 21  1  0  0  0  0
 20 22  1  0  0  0  0
 22 23  1  0  0  0  0
 22 24  1  0  0  0  0
 23 24  1  0  0  0  0
 26 27  2  0  0  0  0
 26 35  1  0  0  0  0
 27 28  1  0  0  0  0
 28 29  2  0  0  0  0
 28 48  1  0  0  0  0
 29 30  1  0  0  0  0
 30 31  2  0  0  0  0
 30 35  1  0  0  0  0
 31 32  1  0  0  0  0
 31 47  1  0  0  0  0
 32 33  2  0  0  0  0
 32 41  1  0  0  0  0
 33 34  1  0  0  0  0
 33 36  1  0  0  0  0
 34 35  2  0  0  0  0
 36 37  2  0  0  0  0
 36 38  1  0  0  0  0
 38 39  2  0  0  0  0
 40 38  1  6  0  0  0
 40 41  1  0  0  0  0
 40 42  1  0  0  0  0
 42 43  1  1  0  0  0
 42 44  1  0  0  0  0
 42 45  1  0  0  0  0
 44 45  1  0  0  0  0
 45 46  2  0  0  0  0
 49 50  2  0  0  0  0
 49 51  1  0  0  0  0
 51 52  2  0  0  0  0
 51 53  1  0  0  0  0
 53 54  2  0  0  0  0
M  CHG  2  21   1  30   1
M  END
$$$$