
 OpenBabel11252021493D

 54 62  0  0  1  0  0  0  0  0999 V2000
    2.6985    4.4137   -5.7517 O   0  0  0  0  0  0  0  0  0  0  0  0
    2.3015    3.1583   -5.3618 C   0  0  0  0  0  0  0  0  0  0  0  0
    2.3783    2.7511   -4.0914 C   0  0  0  0  0  0  0  0  0  0  0  0
    2.9130    3.5887   -3.1212 O   0  0  0  0  0  0  0  0  0  0  0  0
    2.2313    3.4902   -1.8811 C   0  0  2  0  0  0  0  0  0  0  0  0
    2.9293    4.3361   -0.9132 O   0  0  0  0  0  0  0  0  0  0  0  0
    3.0420    5.6929   -1.1435 C   0  0  0  0  0  0  0  0  0  0  0  0
    4.1104    6.3509   -0.6509 C   0  0  0  0  0  0  0  0  0  0  0  0
    4.2464    7.7444   -0.7302 O   0  0  0  0  0  0  0  0  0  0  0  0
    3.1515    8.5213   -1.1950 C   0  0  0  0  0  0  0  0  0  0  0  0
    2.0467    7.9234   -1.6925 C   0  0  0  0  0  0  0  0  0  0  0  0
    1.9144    6.4262   -1.8307 C   0  0  0  0  0  0  0  0  0  0  0  0
    0.8265    8.7220   -2.1117 C   0  0  3  0  0  0  0  0  0  0  0  0
   -0.2099    8.3468   -1.2199 O   0  0  0  0  0  0  0  0  0  0  0  0
   -1.3992    9.0035   -1.3098 C   0  0  0  0  0  0  0  0  0  0  0  0
   -2.3948    8.5646   -0.7459 O   0  0  0  0  0  0  0  0  0  0  0  0
   -1.4015   10.1391   -2.0392 O   0  0  0  0  0  0  0  0  0  0  0  0
   -0.2268   10.8985   -2.2948 C   0  0  3  0  0  0  0  0  0  0  0  0
    1.0151   10.1736   -1.9118 C   0  0  0  0  0  0  0  0  0  0  0  0
    2.1504   10.7131   -1.4252 C   0  0  0  0  0  0  0  0  0  0  0  0
    3.2306    9.9038   -1.1021 O   0  3  0  0  0  0  0  0  0  0  0  0
    2.3272   12.1578   -1.1436 C   0  0  0  0  0  0  0  0  0  0  0  0
    2.0446   12.6757    0.1626 O   0  0  0  0  0  0  0  0  0  0  0  0
    3.4071   12.5914   -0.2956 O   0  0  0  0  0  0  0  0  0  0  0  0
   -0.0878   11.0927   -3.6873 O   0  0  0  0  0  0  0  0  0  0  0  0
    5.2032    5.5789    0.0258 C   0  0  0  0  0  0  0  0  0  0  0  0
    5.1350    5.3485    1.4027 C   0  0  0  0  0  0  0  0  0  0  0  0
    6.0176    4.5362    1.9883 N   0  3  0  0  0  0  0  0  0  0  0  0
    5.9875    4.3723    3.3286 F   0  0  0  0  0  0  0  0  0  0  0  0
    6.9232    3.8758    1.2870 N   0  0  0  0  0  0  0  0  0  0  0  0
    7.0151    4.0505   -0.0382 N   0  3  0  0  0  0  0  0  0  0  0  0
    6.1909    4.9568   -0.6984 N   0  3  0  0  0  0  0  0  0  0  0  0
    6.4235    5.1941   -2.0145 C   0  0  0  0  0  0  0  0  0  0  0  0
    7.4133    4.5154   -2.7075 C   0  0  0  0  0  0  0  0  0  0  0  0
    7.6201    4.8144   -4.1138 C   0  0  0  0  0  0  0  0  0  0  0  0
    7.0307    5.7851   -4.5526 O   0  0  0  0  0  0  0  0  0  0  0  0
    8.5423    3.9148   -4.9046 C   0  0  0  0  0  0  0  0  0  0  0  0
    8.8834    4.2443   -6.0245 O   0  0  0  0  0  0  0  0  0  0  0  0
    8.9265    2.6300   -4.1915 C   0  0  1  0  0  0  0  0  0  0  0  0
    9.0871    2.7947   -2.7510 O   0  0  0  0  0  0  0  0  0  0  0  0
    8.1723    3.5628   -2.0808 C   0  0  0  0  0  0  0  0  0  0  0  0
    7.9745    3.3222   -0.7056 C   0  0  0  0  0  0  0  0  0  0  0  0
    8.8228    2.4288   -0.0525 N   0  0  0  0  0  0  0  0  0  0  0  0
    7.9889    1.4942   -4.5410 C   0  0  1  0  0  0  0  0  0  0  0  0
    7.9186    1.1242   -5.9221 O   0  0  0  0  0  0  0  0  0  0  0  0
    7.9037    0.4376   -3.5931 O   0  0  0  0  0  0  0  0  0  0  0  0
    6.7890    1.1763   -3.7535 C   0  0  0  0  0  0  0  0  0  0  0  0
    6.1964    1.8703   -2.9339 O   0  0  0  0  0  0  0  0  0  0  0  0
    2.4209    2.1019   -1.2963 C   0  0  0  0  0  0  0  0  0  0  0  0
    2.8619    1.9092   -0.1659 O   0  0  0  0  0  0  0  0  0  0  0  0
    2.2589    0.9928   -2.3114 C   0  0  0  0  0  0  0  0  0  0  0  0
    2.5716   -0.1428   -2.0008 O   0  0  0  0  0  0  0  0  0  0  0  0
    1.9398    1.3648   -3.7471 C   0  0  0  0  0  0  0  0  0  0  0  0
    1.4022    0.5973   -4.5181 O   0  0  0  0  0  0  0  0  0  0  0  0
  1  2  1  0  0  0  0
  2  3  2  0  0  0  0
  3  4  1  0  0  0  0
  3 53  1  0  0  0  0
  4  5  1  0  0  0  0
  5  6  1  1  0  0  0
  5 49  1  0  0  0  0
  6  7  1  0  0  0  0
  7  8  2  0  0  0  0
  7 12  1  0  0  0  0
  8  9  1  0  0  0  0
  8 26  1  0  0  0  0
  9 10  1  0  0  0  0
 10 11  2  0  0  0  0
 10 21  1  0  0  0  0
 11 12  1  0  0  0  0
 11 13  1  0  0  0  0
 13 14  1  0  0  0  0
 13 19  1  0  0  0  0
 14 15  1  0  0  0  0
 15 16  2  0  0  0  0
 15 17  1  0  0  0  0
 17 18  1  0  0  0  0
 18 19  1  0  0  0  0
 18 25  1  0  0  0  0
 19 20  2  0  0  0  0
 20 21  1  0  0  0  0
 20 22  1  0  0  0  0
 22 23  1  0  0  0  0
 22 24  1  0  0  0  0
 23 24  1  0  0  0  0
 26 27  2  0  0  0  0
 26 32  1  0  0  0  0
 27 28  1  0  0  0  0
 28 29  1  0  0  0  0
 28 30  2  0  0  0  0
 30 31  1  0  0  0  0
 31 32  2  0  0  0  0
 31 42  1  0  0  0  0
 32 33  1  0  0  0  0
 33 34  2  0  0  0  0
 34 35  1  0  0  0  0
 34 41  1  0  0  0  0
 35 36  2  0  0  0  0
 35 37  1  0  0  0  0
 37 38  2  0  0  0  0
 39 37  1  1  0  0  0
 39 40  1  0  0  0  0
 39 44  1  0  0  0  0
 40 41  1  0  0  0  0
 41 42  2  0  0  0  0
 42 43  1  0  0  0  0
 44 45  1  6  0  0  0
 44 46  1  0  0  0  0
 44 47  1  0  0  0  0
 46 47  1  0  0  0  0
 47 48  2  0  0  0  0
 49 50  2  0  0  0  0
 49 51  1  0  0  0  0
 51 52  2  0  0  0  0
 51 53  1  0  0  0  0
 53 54  2  0  0  0  0
M  CHG  4  21   1  28   1  31   1  32   1
M  END
$$$$