
 OpenBabel11212020113D

 55 63  0  0  1  0  0  0  0  0999 V2000
    2.1469   -1.8568   -4.8779 O   0  0  0  0  0  0  0  0  0  0  0  0
    2.6130   -0.9868   -3.9233 C   0  0  0  0  0  0  0  0  0  0  0  0
    2.7949   -1.3448   -2.6463 C   0  0  0  0  0  0  0  0  0  0  0  0
    2.4635   -2.6238   -2.2306 O   0  0  0  0  0  0  0  0  0  0  0  0
    3.1946   -3.1186   -1.1215 C   0  0  2  0  0  0  0  0  0  0  0  0
    2.7433   -4.4399   -0.7374 O   0  0  0  0  0  0  0  0  0  0  0  0
    2.9209   -5.5152   -1.5993 C   0  0  0  0  0  0  0  0  0  0  0  0
    2.5585   -6.7730   -1.2420 C   0  0  0  0  0  0  0  0  0  0  0  0
    2.7075   -7.8623   -2.1123 O   0  0  0  0  0  0  0  0  0  0  0  0
    3.3371   -7.7063   -3.3424 C   0  0  0  0  0  0  0  0  0  0  0  0
    3.8007   -6.5068   -3.7260 C   0  0  0  0  0  0  0  0  0  0  0  0
    3.5592   -5.2613   -2.9375 C   0  0  0  0  0  0  0  0  0  0  0  0
    4.6274   -6.3281   -4.9596 C   0  0  3  0  0  0  0  0  0  0  0  0
    5.9251   -5.9814   -4.5062 O   0  0  0  0  0  0  0  0  0  0  0  0
    6.9125   -5.8543   -5.4294 C   0  0  0  0  0  0  0  0  0  0  0  0
    7.9656   -5.3057   -5.1507 O   0  0  0  0  0  0  0  0  0  0  0  0
    6.6557   -6.3796   -6.6505 O   0  0  0  0  0  0  0  0  0  0  0  0
    5.6290   -7.3352   -6.9009 C   0  0  3  0  0  0  0  0  0  0  0  0
    4.7783   -7.5894   -5.7114 C   0  0  0  0  0  0  0  0  0  0  0  0
    4.2247   -8.7572   -5.3161 C   0  0  0  0  0  0  0  0  0  0  0  0
    3.5001   -8.8230   -4.1333 O   0  3  0  0  0  0  0  0  0  0  0  0
    4.3716  -10.0289   -6.0585 C   0  0  0  0  0  0  0  0  0  0  0  0
    5.4540  -10.9229   -5.7722 O   0  0  0  0  0  0  0  0  0  0  0  0
    4.1075  -11.2846   -5.4093 O   0  0  0  0  0  0  0  0  0  0  0  0
    4.7422   -6.8139   -7.8697 O   0  0  0  0  0  0  0  0  0  0  0  0
    2.0328   -7.1433    0.1119 C   0  0  0  0  0  0  0  0  0  0  0  0
    2.5430   -6.4702    1.2218 C   0  0  0  0  0  0  0  0  0  0  0  0
    2.1497   -6.7715    2.4564 N   0  3  0  0  0  0  0  0  0  0  0  0
    2.6737   -6.0919    3.4942 F   0  0  0  0  0  0  0  0  0  0  0  0
    1.2873   -7.7258    2.7045 N   0  0  0  0  0  0  0  0  0  0  0  0
    0.7672   -8.4570    1.7128 C   0  0  0  0  0  0  0  0  0  0  0  0
    1.1015   -8.1876    0.3671 C   0  0  0  0  0  0  0  0  0  0  0  0
    0.4677   -8.9640   -0.6334 C   0  0  0  0  0  0  0  0  0  0  0  0
   -0.4692   -9.9561   -0.3220 C   0  0  0  0  0  0  0  0  0  0  0  0
   -1.1016  -10.7134   -1.4041 C   0  0  0  0  0  0  0  0  0  0  0  0
   -0.7162  -10.5823   -2.5567 O   0  0  0  0  0  0  0  0  0  0  0  0
   -2.2020  -11.6674   -1.0071 C   0  0  0  0  0  0  0  0  0  0  0  0
   -2.5109  -12.5869   -1.7476 O   0  0  0  0  0  0  0  0  0  0  0  0
   -2.8241  -11.3595    0.3378 C   0  0  1  0  0  0  0  0  0  0  0  0
   -1.8376  -11.0483    1.3454 O   0  0  0  0  0  0  0  0  0  0  0  0
   -0.8225  -10.1988    0.9903 C   0  0  0  0  0  0  0  0  0  0  0  0
   -0.1530   -9.4884    2.0011 C   0  0  0  0  0  0  0  0  0  0  0  0
   -0.5254   -9.7965    3.2993 O   0  0  0  0  0  0  0  0  0  0  0  0
    0.6587   -9.7117    4.1433 O   0  0  0  0  0  0  0  0  0  0  0  0
   -3.9296  -10.3369    0.2197 C   0  0  1  0  0  0  0  0  0  0  0  0
   -5.0361  -10.6847   -0.6256 O   0  0  0  0  0  0  0  0  0  0  0  0
   -4.2864   -9.6521    1.4384 O   0  0  0  0  0  0  0  0  0  0  0  0
   -3.7470   -8.9061    0.4568 C   0  0  0  0  0  0  0  0  0  0  0  0
   -2.7793   -8.1945    0.4221 O   0  0  0  0  0  0  0  0  0  0  0  0
    2.9958   -2.2005    0.0654 C   0  0  0  0  0  0  0  0  0  0  0  0
    2.6037   -2.5487    1.1703 O   0  0  0  0  0  0  0  0  0  0  0  0
    3.4083   -0.7865   -0.2573 C   0  0  0  0  0  0  0  0  0  0  0  0
    3.9050   -0.0944    0.6142 O   0  0  0  0  0  0  0  0  0  0  0  0
    3.3089   -0.3115   -1.6964 C   0  0  0  0  0  0  0  0  0  0  0  0
    3.6621    0.8050   -2.0323 O   0  0  0  0  0  0  0  0  0  0  0  0
  1  2  1  0  0  0  0
  2  3  2  0  0  0  0
  3  4  1  0  0  0  0
  3 54  1  0  0  0  0
  4  5  1  0  0  0  0
  5  6  1  1  0  0  0
  5 50  1  0  0  0  0
  6  7  1  0  0  0  0
  7  8  2  0  0  0  0
  7 12  1  0  0  0  0
  8  9  1  0  0  0  0
  8 26  1  0  0  0  0
  9 10  1  0  0  0  0
 10 11  2  0  0  0  0
 10 21  1  0  0  0  0
 11 12  1  0  0  0  0
 11 13  1  0  0  0  0
 13 14  1  0  0  0  0
 13 19  1  0  0  0  0
 14 15  1  0  0  0  0
 15 16  2  0  0  0  0
 15 17  1  0  0  0  0
 17 18  1  0  0  0  0
 18 19  1  0  0  0  0
 18 25  1  0  0  0  0
 19 20  2  0  0  0  0
 20 21  1  0  0  0  0
 20 22  1  0  0  0  0
 22 23  1  0  0  0  0
 22 24  1  0  0  0  0
 23 24  1  0  0  0  0
 26 27  2  0  0  0  0
 26 32  1  0  0  0  0
 27 28  1  0  0  0  0
 28 29  1  0  0  0  0
 28 30  2  0  0  0  0
 30 31  1  0  0  0  0
 31 32  2  0  0  0  0
 31 42  1  0  0  0  0
 32 33  1  0  0  0  0
 33 34  2  0  0  0  0
 34 35  1  0  0  0  0
 34 41  1  0  0  0  0
 35 36  2  0  0  0  0
 35 37  1  0  0  0  0
 37 38  2  0  0  0  0
 39 37  1  6  0  0  0
 39 40  1  0  0  0  0
 39 45  1  0  0  0  0
 40 41  1  0  0  0  0
 41 42  2  0  0  0  0
 42 43  1  0  0  0  0
 43 44  1  0  0  0  0
 45 46  1  6  0  0  0
 45 47  1  0  0  0  0
 45 48  1  0  0  0  0
 47 48  1  0  0  0  0
 48 49  2  0  0  0  0
 50 51  2  0  0  0  0
 50 52  1  0  0  0  0
 52 53  2  0  0  0  0
 52 54  1  0  0  0  0
 54 55  2  0  0  0  0
M  CHG  2  21   1  28   1
M  END
$$$$