
 OpenBabel11212022153D

 54 62  0  0  1  0  0  0  0  0999 V2000
    1.4793    3.9954   -6.5775 O   0  0  0  0  0  0  0  0  0  0  0  0
    1.0918    2.8242   -5.9750 C   0  0  0  0  0  0  0  0  0  0  0  0
    1.4140    2.5202   -4.7113 C   0  0  0  0  0  0  0  0  0  0  0  0
    2.2055    3.3866   -3.9726 O   0  0  0  0  0  0  0  0  0  0  0  0
    2.1580    3.2666   -2.5587 C   0  0  2  0  0  0  0  0  0  0  0  0
    3.2151    4.0411   -1.9490 O   0  0  0  0  0  0  0  0  0  0  0  0
    3.2163    5.4089   -2.1651 C   0  0  0  0  0  0  0  0  0  0  0  0
    4.3794    6.0874   -2.2386 C   0  0  0  0  0  0  0  0  0  0  0  0
    4.4441    7.4694   -2.3910 O   0  0  0  0  0  0  0  0  0  0  0  0
    3.2708    8.2213   -2.3736 C   0  0  0  0  0  0  0  0  0  0  0  0
    2.0613    7.6377   -2.2610 C   0  0  0  0  0  0  0  0  0  0  0  0
    1.8972    6.1414   -2.2052 C   0  0  0  0  0  0  0  0  0  0  0  0
    0.7938    8.4515   -2.2019 C   0  0  3  0  0  0  0  0  0  0  0  0
    0.1717    8.2012   -0.9524 O   0  0  0  0  0  0  0  0  0  0  0  0
   -1.0121    8.8466   -0.7432 C   0  0  0  0  0  0  0  0  0  0  0  0
   -1.7869    8.5041    0.1323 O   0  0  0  0  0  0  0  0  0  0  0  0
   -1.2675    9.8548   -1.6147 O   0  0  0  0  0  0  0  0  0  0  0  0
   -0.1864   10.6828   -2.0175 C   0  0  3  0  0  0  0  0  0  0  0  0
    1.0690    9.9081   -2.2192 C   0  0  0  0  0  0  0  0  0  0  0  0
    2.3094   10.4246   -2.3531 C   0  0  0  0  0  0  0  0  0  0  0  0
    3.4050    9.5872   -2.4659 O   0  3  0  0  0  0  0  0  0  0  0  0
    2.6077   11.8753   -2.3483 C   0  0  0  0  0  0  0  0  0  0  0  0
    2.9495   12.5477   -1.1306 O   0  0  0  0  0  0  0  0  0  0  0  0
    3.9555   12.3336   -2.1369 O   0  0  0  0  0  0  0  0  0  0  0  0
   -0.4770   11.2296   -3.2875 O   0  0  0  0  0  0  0  0  0  0  0  0
    5.7018    5.4357   -2.1385 C   0  0  0  0  0  0  0  0  0  0  0  0
    6.2619    5.2619   -0.8728 C   0  0  0  0  0  0  0  0  0  0  0  0
    7.4968    4.7508   -0.7371 N   0  3  0  0  0  0  0  0  0  0  0  0
    8.1426    4.6703    0.5289 N   0  0  0  0  0  0  0  0  0  0  0  0
    8.2165    4.3735   -1.7746 N   0  0  0  0  0  0  0  0  0  0  0  0
    7.7176    4.4716   -3.0113 C   0  0  0  0  0  0  0  0  0  0  0  0
    6.4421    5.0105   -3.2593 C   0  0  0  0  0  0  0  0  0  0  0  0
    5.9889    5.0977   -4.5987 C   0  0  0  0  0  0  0  0  0  0  0  0
    6.7850    4.6422   -5.6591 C   0  0  0  0  0  0  0  0  0  0  0  0
    6.3172    4.7596   -7.0440 C   0  0  0  0  0  0  0  0  0  0  0  0
    5.3316    5.4323   -7.3023 O   0  0  0  0  0  0  0  0  0  0  0  0
    7.1209    4.0439   -8.1107 C   0  0  0  0  0  0  0  0  0  0  0  0
    6.8358    4.1700   -9.2913 O   0  0  0  0  0  0  0  0  0  0  0  0
    8.2151    3.1434   -7.5782 C   0  0  1  0  0  0  0  0  0  0  0  0
    8.8609    3.6329   -6.3921 O   0  0  0  0  0  0  0  0  0  0  0  0
    8.0310    4.0974   -5.4121 C   0  0  0  0  0  0  0  0  0  0  0  0
    8.4841    4.0389   -4.0938 C   0  0  0  0  0  0  0  0  0  0  0  0
    9.7039    3.5309   -3.8538 F   0  0  0  0  0  0  0  0  0  0  0  0
    7.7104    1.7552   -7.3459 C   0  0  1  0  0  0  0  0  0  0  0  0
    6.5981    1.6104   -6.4216 O   0  0  0  0  0  0  0  0  0  0  0  0
    7.7018    0.8967   -8.4754 O   0  0  0  0  0  0  0  0  0  0  0  0
    8.5564    0.5693   -7.4891 C   0  0  0  0  0  0  0  0  0  0  0  0
    8.5850   -0.4138   -6.7704 O   0  0  0  0  0  0  0  0  0  0  0  0
    2.3571    1.8307   -2.1208 C   0  0  0  0  0  0  0  0  0  0  0  0
    3.2225    1.4190   -1.3640 O   0  0  0  0  0  0  0  0  0  0  0  0
    1.3429    0.9255   -2.7538 C   0  0  0  0  0  0  0  0  0  0  0  0
    0.7995    0.0650   -2.0848 O   0  0  0  0  0  0  0  0  0  0  0  0
    0.9466    1.1998   -4.1873 C   0  0  0  0  0  0  0  0  0  0  0  0
    0.3046    0.3953   -4.8363 O   0  0  0  0  0  0  0  0  0  0  0  0
  1  2  1  0  0  0  0
  2  3  2  0  0  0  0
  3  4  1  0  0  0  0
  3 53  1  0  0  0  0
  4  5  1  0  0  0  0
  5  6  1  1  0  0  0
  5 49  1  0  0  0  0
  6  7  1  0  0  0  0
  7  8  2  0  0  0  0
  7 12  1  0  0  0  0
  8  9  1  0  0  0  0
  8 26  1  0  0  0  0
  9 10  1  0  0  0  0
 10 11  2  0  0  0  0
 10 21  1  0  0  0  0
 11 12  1  0  0  0  0
 11 13  1  0  0  0  0
 13 14  1  0  0  0  0
 13 19  1  0  0  0  0
 14 15  1  0  0  0  0
 15 16  2  0  0  0  0
 15 17  1  0  0  0  0
 17 18  1  0  0  0  0
 18 19  1  0  0  0  0
 18 25  1  0  0  0  0
 19 20  2  0  0  0  0
 20 21  1  0  0  0  0
 20 22  1  0  0  0  0
 22 23  1  0  0  0  0
 22 24  1  0  0  0  0
 23 24  1  0  0  0  0
 26 27  2  0  0  0  0
 26 32  1  0  0  0  0
 27 28  1  0  0  0  0
 28 29  1  0  0  0  0
 28 30  2  0  0  0  0
 30 31  1  0  0  0  0
 31 32  2  0  0  0  0
 31 42  1  0  0  0  0
 32 33  1  0  0  0  0
 33 34  2  0  0  0  0
 34 35  1  0  0  0  0
 34 41  1  0  0  0  0
 35 36  2  0  0  0  0
 35 37  1  0  0  0  0
 37 38  2  0  0  0  0
 39 37  1  1  0  0  0
 39 40  1  0  0  0  0
 39 44  1  0  0  0  0
 40 41  1  0  0  0  0
 41 42  2  0  0  0  0
 42 43  1  0  0  0  0
 44 45  1  1  0  0  0
 44 46  1  0  0  0  0
 44 47  1  0  0  0  0
 46 47  1  0  0  0  0
 47 48  2  0  0  0  0
 49 50  2  0  0  0  0
 49 51  1  0  0  0  0
 51 52  2  0  0  0  0
 51 53  1  0  0  0  0
 53 54  2  0  0  0  0
M  CHG  2  21   1  28   1
M  END
$$$$