
 OpenBabel11232001483D

 52 60  0  0  1  0  0  0  0  0999 V2000
   -2.0761    2.1851   -4.1215 O   0  0  0  0  0  0  0  0  0  0  0  0
   -1.6345    1.8173   -2.8750 C   0  0  0  0  0  0  0  0  0  0  0  0
   -0.5203    1.0999   -2.6905 C   0  0  0  0  0  0  0  0  0  0  0  0
    0.2140    0.6678   -3.7850 O   0  0  0  0  0  0  0  0  0  0  0  0
    1.6033    0.4970   -3.5351 C   0  0  2  0  0  0  0  0  0  0  0  0
    2.2950    0.0779   -4.7270 O   0  0  0  0  0  0  0  0  0  0  0  0
    2.2109    0.9293   -5.8191 C   0  0  0  0  0  0  0  0  0  0  0  0
    2.2401    0.4374   -7.0729 C   0  0  0  0  0  0  0  0  0  0  0  0
    2.2296    1.2497   -8.2059 O   0  0  0  0  0  0  0  0  0  0  0  0
    2.3456    2.6379   -8.0562 C   0  0  0  0  0  0  0  0  0  0  0  0
    2.4080    3.2126   -6.8380 C   0  0  0  0  0  0  0  0  0  0  0  0
    2.2182    2.4159   -5.5784 C   0  0  0  0  0  0  0  0  0  0  0  0
    2.6020    4.6950   -6.6697 C   0  0  3  0  0  0  0  0  0  0  0  0
    3.8911    4.9264   -6.0859 N   0  0  0  0  0  0  0  0  0  0  0  0
    4.4945    6.1456   -6.1070 C   0  0  0  0  0  0  0  0  0  0  0  0
    5.4257    6.3919   -5.3560 O   0  0  0  0  0  0  0  0  0  0  0  0
    4.0440    7.0261   -7.0339 N   0  0  0  0  0  0  0  0  0  0  0  0
    2.8120    6.8856   -7.7594 C   0  0  0  0  0  0  0  0  0  0  0  0
    2.6104    5.4174   -7.9834 C   0  0  0  0  0  0  0  0  0  0  0  0
    2.5264    4.7726   -9.1674 C   0  0  0  0  0  0  0  0  0  0  0  0
    2.4005    3.3926   -9.2049 O   0  3  0  0  0  0  0  0  0  0  0  0
    2.5583    5.4331  -10.4934 C   0  0  0  0  0  0  0  0  0  0  0  0
    2.4511    4.6409  -11.6932 O   0  0  0  0  0  0  0  0  0  0  0  0
    1.3729    5.5077  -11.2952 O   0  0  0  0  0  0  0  0  0  0  0  0
    2.3868   -1.0134   -7.3256 C   0  0  0  0  0  0  0  0  0  0  0  0
    3.6796   -1.5175   -7.4493 C   0  0  0  0  0  0  0  0  0  0  0  0
    3.8949   -2.8285   -7.6007 N   0  3  0  0  0  0  0  0  0  0  0  0
    5.1598   -3.2769   -7.7159 F   0  0  0  0  0  0  0  0  0  0  0  0
    2.9141   -3.7093   -7.6374 N   0  0  0  0  0  0  0  0  0  0  0  0
    1.6555   -3.2966   -7.4908 C   0  0  0  0  0  0  0  0  0  0  0  0
    1.3199   -1.9351   -7.3342 C   0  0  0  0  0  0  0  0  0  0  0  0
   -0.0439   -1.5898   -7.1770 C   0  0  0  0  0  0  0  0  0  0  0  0
   -1.0343   -2.5823   -7.1453 C   0  0  0  0  0  0  0  0  0  0  0  0
   -0.6871   -3.9175   -7.2661 C   0  0  0  0  0  0  0  0  0  0  0  0
    0.6502   -4.2571   -7.4687 C   0  0  0  0  0  0  0  0  0  0  0  0
   -1.5703   -4.9563   -7.1982 O   0  0  0  0  0  0  0  0  0  0  0  0
   -2.8109   -4.6933   -6.5200 C   0  0  2  0  0  0  0  0  0  0  0  0
   -3.4348   -3.3646   -6.8809 C   0  0  0  0  0  0  0  0  0  0  0  0
   -4.6287   -3.1789   -7.0577 O   0  0  0  0  0  0  0  0  0  0  0  0
   -2.4478   -2.2214   -6.9878 C   0  0  0  0  0  0  0  0  0  0  0  0
   -2.7941   -1.0512   -6.9711 O   0  0  0  0  0  0  0  0  0  0  0  0
   -2.6352   -4.8277   -5.0402 C   0  0  1  0  0  0  0  0  0  0  0  0
   -1.7329   -3.8856   -4.3976 O   0  0  0  0  0  0  0  0  0  0  0  0
   -3.8126   -5.1533   -4.3126 O   0  0  0  0  0  0  0  0  0  0  0  0
   -2.8379   -6.0857   -4.3141 C   0  0  0  0  0  0  0  0  0  0  0  0
   -2.1790   -6.5267   -3.3972 O   0  0  0  0  0  0  0  0  0  0  0  0
    1.7781   -0.5562   -2.4648 C   0  0  0  0  0  0  0  0  0  0  0  0
    2.3824   -1.6101   -2.5874 O   0  0  0  0  0  0  0  0  0  0  0  0
    1.0934   -0.1449   -1.1885 C   0  0  0  0  0  0  0  0  0  0  0  0
    1.5733   -0.4632   -0.1151 O   0  0  0  0  0  0  0  0  0  0  0  0
   -0.1233    0.7605   -1.2880 C   0  0  0  0  0  0  0  0  0  0  0  0
   -0.6809    1.2025   -0.2993 O   0  0  0  0  0  0  0  0  0  0  0  0
  1  2  1  0  0  0  0
  2  3  2  0  0  0  0
  3  4  1  0  0  0  0
  3 51  1  0  0  0  0
  4  5  1  0  0  0  0
  5  6  1  6  0  0  0
  5 47  1  0  0  0  0
  6  7  1  0  0  0  0
  7  8  2  0  0  0  0
  7 12  1  0  0  0  0
  8  9  1  0  0  0  0
  8 25  1  0  0  0  0
  9 10  1  0  0  0  0
 10 11  2  0  0  0  0
 10 21  1  0  0  0  0
 11 12  1  0  0  0  0
 11 13  1  0  0  0  0
 13 14  1  0  0  0  0
 13 19  1  0  0  0  0
 14 15  1  0  0  0  0
 15 16  2  0  0  0  0
 15 17  1  0  0  0  0
 17 18  1  0  0  0  0
 18 19  1  0  0  0  0
 19 20  2  0  0  0  0
 20 21  1  0  0  0  0
 20 22  1  0  0  0  0
 22 23  1  0  0  0  0
 22 24  1  0  0  0  0
 23 24  1  0  0  0  0
 25 26  2  0  0  0  0
 25 31  1  0  0  0  0
 26 27  1  0  0  0  0
 27 28  1  0  0  0  0
 27 29  2  0  0  0  0
 29 30  1  0  0  0  0
 30 31  2  0  0  0  0
 30 35  1  0  0  0  0
 31 32  1  0  0  0  0
 32 33  2  0  0  0  0
 33 34  1  0  0  0  0
 33 40  1  0  0  0  0
 34 35  2  0  0  0  0
 34 36  1  0  0  0  0
 37 36  1  6  0  0  0
 37 38  1  0  0  0  0
 37 42  1  0  0  0  0
 38 39  2  0  0  0  0
 38 40  1  0  0  0  0
 40 41  2  0  0  0  0
 42 43  1  1  0  0  0
 42 44  1  0  0  0  0
 42 45  1  0  0  0  0
 44 45  1  0  0  0  0
 45 46  2  0  0  0  0
 47 48  2  0  0  0  0
 47 49  1  0  0  0  0
 49 50  2  0  0  0  0
 49 51  1  0  0  0  0
 51 52  2  0  0  0  0
M  CHG  2  21   1  27   1
M  END
$$$$