
 OpenBabel11222000223D

 55 63  0  0  1  0  0  0  0  0999 V2000
    7.1856   -0.4363    5.0560 O   0  0  0  0  0  0  0  0  0  0  0  0
    6.8246    0.7566    4.4780 C   0  0  0  0  0  0  0  0  0  0  0  0
    5.5900    0.9887    4.0190 C   0  0  0  0  0  0  0  0  0  0  0  0
    4.6369   -0.0123    4.0824 O   0  0  0  0  0  0  0  0  0  0  0  0
    3.3021    0.4379    4.2483 C   0  0  3  0  0  0  0  0  0  0  0  0
    2.4096   -0.6908    4.2996 O   0  0  0  0  0  0  0  0  0  0  0  0
    2.5944   -1.6007    5.3332 C   0  0  0  0  0  0  0  0  0  0  0  0
    2.2729   -2.9111    5.1950 C   0  0  0  0  0  0  0  0  0  0  0  0
    2.4601   -3.8228    6.2476 O   0  0  0  0  0  0  0  0  0  0  0  0
    2.9494   -3.3896    7.4851 C   0  0  0  0  0  0  0  0  0  0  0  0
    3.1895   -2.0874    7.7158 C   0  0  0  0  0  0  0  0  0  0  0  0
    3.0636   -1.0500    6.6531 C   0  0  0  0  0  0  0  0  0  0  0  0
    3.6296   -1.5722    9.0539 C   0  0  3  0  0  0  0  0  0  0  0  0
    2.5633   -0.7978    9.5722 O   0  0  0  0  0  0  0  0  0  0  0  0
    2.7042   -0.2889   10.8277 C   0  0  0  0  0  0  0  0  0  0  0  0
    1.9701    0.5968   11.2340 O   0  0  0  0  0  0  0  0  0  0  0  0
    3.6899   -0.8283   11.5832 O   0  0  0  0  0  0  0  0  0  0  0  0
    4.3103   -2.0796   11.3029 C   0  0  3  0  0  0  0  0  0  0  0  0
    3.8540   -2.6661   10.0175 C   0  0  0  0  0  0  0  0  0  0  0  0
    3.6457   -3.9676    9.7199 C   0  0  0  0  0  0  0  0  0  0  0  0
    3.1660   -4.3343    8.4674 O   0  3  0  0  0  0  0  0  0  0  0  0
    3.8759   -5.0717   10.6779 C   0  0  0  0  0  0  0  0  0  0  0  0
    2.8150   -5.5542   11.5102 O   0  0  0  0  0  0  0  0  0  0  0  0
    3.3158   -6.3733   10.4355 O   0  0  0  0  0  0  0  0  0  0  0  0
    5.6987   -1.8757   11.1304 O   0  0  0  0  0  0  0  0  0  0  0  0
    1.6361   -3.4793    3.9514 C   0  0  0  0  0  0  0  0  0  0  0  0
    0.7691   -2.6508    3.2334 C   0  0  0  0  0  0  0  0  0  0  0  0
    0.1563   -3.0724    2.1306 N   0  3  0  0  0  0  0  0  0  0  0  0
   -0.6403   -2.2218    1.4562 F   0  0  0  0  0  0  0  0  0  0  0  0
    0.2942   -4.2923    1.6820 N   0  0  0  0  0  0  0  0  0  0  0  0
    1.1075   -5.1733    2.2728 C   0  0  0  0  0  0  0  0  0  0  0  0
    1.8041   -4.8067    3.4521 C   0  0  0  0  0  0  0  0  0  0  0  0
    2.6285   -5.7925    4.0445 C   0  0  0  0  0  0  0  0  0  0  0  0
    2.7662   -7.0753    3.4952 C   0  0  0  0  0  0  0  0  0  0  0  0
    3.6148   -8.0663    4.1638 C   0  0  0  0  0  0  0  0  0  0  0  0
    3.9342   -7.8944    5.3307 O   0  0  0  0  0  0  0  0  0  0  0  0
    4.0871   -9.2387    3.3324 C   0  0  0  0  0  0  0  0  0  0  0  0
    5.0096   -9.9331    3.7322 O   0  0  0  0  0  0  0  0  0  0  0  0
    3.4149   -9.3739    1.9759 C   0  0  3  0  0  0  0  0  0  0  0  0
    2.1672   -8.6853    1.8252 O   0  0  0  0  0  0  0  0  0  0  0  0
    2.0962   -7.4247    2.3399 C   0  0  0  0  0  0  0  0  0  0  0  0
    1.2620   -6.4722    1.7299 C   0  0  0  0  0  0  0  0  0  0  0  0
    0.5642   -6.9216    0.4801 C   0  0  0  0  0  0  0  0  0  0  0  0
    0.1369   -5.9548   -0.8203 S   0  0  0  0  0  0  0  0  0  0  0  0
    3.1891  -10.8252    1.6591 C   0  0  3  0  0  0  0  0  0  0  0  0
    2.3249  -11.5476    2.5638 O   0  0  0  0  0  0  0  0  0  0  0  0
    2.9814  -11.1169    0.2753 O   0  0  0  0  0  0  0  0  0  0  0  0
    4.1244  -11.5666    0.8252 C   0  0  0  0  0  0  0  0  0  0  0  0
    5.2799  -11.3235    0.5377 O   0  0  0  0  0  0  0  0  0  0  0  0
    2.9241    1.3250    3.0844 C   0  0  0  0  0  0  0  0  0  0  0  0
    2.0052    1.1260    2.3053 O   0  0  0  0  0  0  0  0  0  0  0  0
    3.8419    2.5167    3.0090 C   0  0  0  0  0  0  0  0  0  0  0  0
    3.3799    3.6174    2.7683 O   0  0  0  0  0  0  0  0  0  0  0  0
    5.2962    2.3226    3.4071 C   0  0  0  0  0  0  0  0  0  0  0  0
    6.1284    3.1995    3.2628 O   0  0  0  0  0  0  0  0  0  0  0  0
  1  2  1  0  0  0  0
  2  3  2  0  0  0  0
  3  4  1  0  0  0  0
  3 54  1  0  0  0  0
  4  5  1  0  0  0  0
  5  6  1  0  0  0  0
  5 50  1  0  0  0  0
  6  7  1  0  0  0  0
  7  8  2  0  0  0  0
  7 12  1  0  0  0  0
  8  9  1  0  0  0  0
  8 26  1  0  0  0  0
  9 10  1  0  0  0  0
 10 11  2  0  0  0  0
 10 21  1  0  0  0  0
 11 12  1  0  0  0  0
 11 13  1  0  0  0  0
 13 14  1  0  0  0  0
 13 19  1  0  0  0  0
 14 15  1  0  0  0  0
 15 16  2  0  0  0  0
 15 17  1  0  0  0  0
 17 18  1  0  0  0  0
 18 19  1  0  0  0  0
 18 25  1  0  0  0  0
 19 20  2  0  0  0  0
 20 21  1  0  0  0  0
 20 22  1  0  0  0  0
 22 23  1  0  0  0  0
 22 24  1  0  0  0  0
 23 24  1  0  0  0  0
 26 27  2  0  0  0  0
 26 32  1  0  0  0  0
 27 28  1  0  0  0  0
 28 29  1  0  0  0  0
 28 30  2  0  0  0  0
 30 31  1  0  0  0  0
 31 32  2  0  0  0  0
 31 42  1  0  0  0  0
 32 33  1  0  0  0  0
 33 34  2  0  0  0  0
 34 35  1  0  0  0  0
 34 41  1  0  0  0  0
 35 36  2  0  0  0  0
 35 37  1  0  0  0  0
 37 38  2  0  0  0  0
 37 39  1  0  0  0  0
 39 40  1  0  0  0  0
 39 45  1  0  0  0  0
 40 41  1  0  0  0  0
 41 42  2  0  0  0  0
 42 43  1  0  0  0  0
 43 44  2  0  0  0  0
 45 46  1  0  0  0  0
 45 47  1  0  0  0  0
 45 48  1  0  0  0  0
 47 48  1  0  0  0  0
 48 49  2  0  0  0  0
 50 51  2  0  0  0  0
 50 52  1  0  0  0  0
 52 53  2  0  0  0  0
 52 54  1  0  0  0  0
 54 55  2  0  0  0  0
M  CHG  2  21   1  28   1
M  END
$$$$