
 OpenBabel11232001313D

 52 60  0  0  1  0  0  0  0  0999 V2000
   -1.5086    3.0798   -3.5920 O   0  0  0  0  0  0  0  0  0  0  0  0
   -1.0259    2.6568   -2.3800 C   0  0  0  0  0  0  0  0  0  0  0  0
   -0.0342    1.7654   -2.2768 C   0  0  0  0  0  0  0  0  0  0  0  0
    0.5241    1.1989   -3.4105 O   0  0  0  0  0  0  0  0  0  0  0  0
    1.9301    0.9980   -3.2963 C   0  0  2  0  0  0  0  0  0  0  0  0
    2.4969    0.5657   -4.5429 O   0  0  0  0  0  0  0  0  0  0  0  0
    2.3281    1.4256   -5.6211 C   0  0  0  0  0  0  0  0  0  0  0  0
    2.2533    0.9385   -6.8755 C   0  0  0  0  0  0  0  0  0  0  0  0
    2.1676    1.7364   -8.0051 O   0  0  0  0  0  0  0  0  0  0  0  0
    2.2729    3.1099   -7.8635 C   0  0  0  0  0  0  0  0  0  0  0  0
    2.3742    3.7032   -6.6612 C   0  0  0  0  0  0  0  0  0  0  0  0
    2.3458    2.9196   -5.3867 C   0  0  0  0  0  0  0  0  0  0  0  0
    2.4931    5.2049   -6.5596 C   0  0  3  0  0  0  0  0  0  0  0  0
    3.6800    5.5054   -5.8339 O   0  0  0  0  0  0  0  0  0  0  0  0
    3.8807    6.8221   -5.5612 C   0  0  0  0  0  0  0  0  0  0  0  0
    4.5839    7.1865   -4.6314 O   0  0  0  0  0  0  0  0  0  0  0  0
    3.2057    7.6892   -6.3607 O   0  0  0  0  0  0  0  0  0  0  0  0
    2.9307    7.3391   -7.7279 C   0  0  0  0  0  0  0  0  0  0  0  0
    2.6120    5.8960   -7.8764 C   0  0  0  0  0  0  0  0  0  0  0  0
    2.4925    5.2289   -9.0448 C   0  0  0  0  0  0  0  0  0  0  0  0
    2.2965    3.8576   -9.0109 N   0  0  0  0  0  0  0  0  0  0  0  0
    2.5730    5.8543  -10.3833 C   0  0  0  0  0  0  0  0  0  0  0  0
    1.8400    5.3342  -11.5060 O   0  0  0  0  0  0  0  0  0  0  0  0
    1.4779    6.6044  -10.9293 O   0  0  0  0  0  0  0  0  0  0  0  0
    2.3577   -0.4935   -7.1770 C   0  0  0  0  0  0  0  0  0  0  0  0
    3.6282   -0.9954   -7.4231 C   0  0  0  0  0  0  0  0  0  0  0  0
    3.8065   -2.2891   -7.6978 N   0  3  0  0  0  0  0  0  0  0  0  0
    5.0532   -2.7418   -7.9278 F   0  0  0  0  0  0  0  0  0  0  0  0
    2.8060   -3.1496   -7.7578 N   0  0  0  0  0  0  0  0  0  0  0  0
    1.5653   -2.7274   -7.5027 C   0  0  0  0  0  0  0  0  0  0  0  0
    1.2719   -1.3827   -7.2021 C   0  0  0  0  0  0  0  0  0  0  0  0
   -0.0656   -1.0124   -6.9230 C   0  0  0  0  0  0  0  0  0  0  0  0
   -1.0705   -1.9823   -6.8785 C   0  0  0  0  0  0  0  0  0  0  0  0
   -0.7660   -3.3097   -7.1417 C   0  0  0  0  0  0  0  0  0  0  0  0
    0.5361   -3.6607   -7.5021 C   0  0  0  0  0  0  0  0  0  0  0  0
   -1.6442   -4.3465   -6.9807 O   0  0  0  0  0  0  0  0  0  0  0  0
   -2.7266   -4.1081   -6.0583 C   0  0  2  0  0  0  0  0  0  0  0  0
   -3.4021   -2.7839   -6.3276 C   0  0  0  0  0  0  0  0  0  0  0  0
   -4.6081   -2.6157   -6.4229 O   0  0  0  0  0  0  0  0  0  0  0  0
   -2.4404   -1.6294   -6.4880 C   0  0  0  0  0  0  0  0  0  0  0  0
   -2.7740   -0.4757   -6.2816 O   0  0  0  0  0  0  0  0  0  0  0  0
   -2.3337   -4.2739   -4.6067 C   0  0  1  0  0  0  0  0  0  0  0  0
   -3.3782   -4.0397   -3.6433 O   0  0  0  0  0  0  0  0  0  0  0  0
   -1.5181   -5.4325   -4.3285 O   0  0  0  0  0  0  0  0  0  0  0  0
   -0.9801   -4.2344   -4.0854 C   0  0  0  0  0  0  0  0  0  0  0  0
    0.0494   -3.7006   -4.4432 O   0  0  0  0  0  0  0  0  0  0  0  0
    2.1736   -0.0643   -2.2409 C   0  0  0  0  0  0  0  0  0  0  0  0
    2.8554   -1.0694   -2.3796 O   0  0  0  0  0  0  0  0  0  0  0  0
    1.4812    0.2639   -0.9370 C   0  0  0  0  0  0  0  0  0  0  0  0
    1.7648   -0.3449    0.0811 O   0  0  0  0  0  0  0  0  0  0  0  0
    0.4452    1.3754   -0.9196 C   0  0  0  0  0  0  0  0  0  0  0  0
    0.0919    1.9155    0.1137 O   0  0  0  0  0  0  0  0  0  0  0  0
  1  2  1  0  0  0  0
  2  3  2  0  0  0  0
  3  4  1  0  0  0  0
  3 51  1  0  0  0  0
  4  5  1  0  0  0  0
  5  6  1  6  0  0  0
  5 47  1  0  0  0  0
  6  7  1  0  0  0  0
  7  8  2  0  0  0  0
  7 12  1  0  0  0  0
  8  9  1  0  0  0  0
  8 25  1  0  0  0  0
  9 10  1  0  0  0  0
 10 11  2  0  0  0  0
 10 21  1  0  0  0  0
 11 12  1  0  0  0  0
 11 13  1  0  0  0  0
 13 14  1  0  0  0  0
 13 19  1  0  0  0  0
 14 15  1  0  0  0  0
 15 16  2  0  0  0  0
 15 17  1  0  0  0  0
 17 18  1  0  0  0  0
 18 19  1  0  0  0  0
 19 20  2  0  0  0  0
 20 21  1  0  0  0  0
 20 22  1  0  0  0  0
 22 23  1  0  0  0  0
 22 24  1  0  0  0  0
 23 24  1  0  0  0  0
 25 26  2  0  0  0  0
 25 31  1  0  0  0  0
 26 27  1  0  0  0  0
 27 28  1  0  0  0  0
 27 29  2  0  0  0  0
 29 30  1  0  0  0  0
 30 31  2  0  0  0  0
 30 35  1  0  0  0  0
 31 32  1  0  0  0  0
 32 33  2  0  0  0  0
 33 34  1  0  0  0  0
 33 40  1  0  0  0  0
 34 35  2  0  0  0  0
 34 36  1  0  0  0  0
 37 36  1  6  0  0  0
 37 38  1  0  0  0  0
 37 42  1  0  0  0  0
 38 39  2  0  0  0  0
 38 40  1  0  0  0  0
 40 41  2  0  0  0  0
 42 43  1  1  0  0  0
 42 44  1  0  0  0  0
 42 45  1  0  0  0  0
 44 45  1  0  0  0  0
 45 46  2  0  0  0  0
 47 48  2  0  0  0  0
 47 49  1  0  0  0  0
 49 50  2  0  0  0  0
 49 51  1  0  0  0  0
 51 52  2  0  0  0  0
M  CHG  1  27   1
M  END
$$$$