
 OpenBabel11212020543D

 54 62  0  0  1  0  0  0  0  0999 V2000
   -1.9980    3.8855   -4.7734 O   0  0  0  0  0  0  0  0  0  0  0  0
   -2.1362    2.5891   -5.1963 C   0  0  0  0  0  0  0  0  0  0  0  0
   -1.1217    1.7156   -5.1933 C   0  0  0  0  0  0  0  0  0  0  0  0
    0.1307    2.0884   -4.7504 O   0  0  0  0  0  0  0  0  0  0  0  0
    1.1831    1.1264   -4.6938 C   0  0  2  0  0  0  0  0  0  0  0  0
    1.8861    0.9382   -5.9501 O   0  0  0  0  0  0  0  0  0  0  0  0
    2.2958    2.0374   -6.6932 C   0  0  0  0  0  0  0  0  0  0  0  0
    2.4763    1.9274   -8.0294 C   0  0  0  0  0  0  0  0  0  0  0  0
    2.7261    3.0331   -8.8524 O   0  0  0  0  0  0  0  0  0  0  0  0
    2.7296    4.3201   -8.3042 C   0  0  0  0  0  0  0  0  0  0  0  0
    2.7144    4.5043   -6.9708 C   0  0  0  0  0  0  0  0  0  0  0  0
    2.5696    3.3592   -6.0031 C   0  0  0  0  0  0  0  0  0  0  0  0
    2.7444    5.8805   -6.3597 C   0  0  3  0  0  0  0  0  0  0  0  0
    3.9697    6.0436   -5.6711 O   0  0  0  0  0  0  0  0  0  0  0  0
    4.1315    7.2407   -5.0344 C   0  0  0  0  0  0  0  0  0  0  0  0
    4.9977    7.4114   -4.1943 O   0  0  0  0  0  0  0  0  0  0  0  0
    3.2314    8.1983   -5.3752 O   0  0  0  0  0  0  0  0  0  0  0  0
    2.7564    8.2800   -6.7150 C   0  0  3  0  0  0  0  0  0  0  0  0
    2.7183    6.9495   -7.3834 C   0  0  0  0  0  0  0  0  0  0  0  0
    2.6845    6.6996   -8.7107 C   0  0  0  0  0  0  0  0  0  0  0  0
    2.7358    5.3916   -9.1749 O   0  3  0  0  0  0  0  0  0  0  0  0
    2.5981    7.7594   -9.7459 C   0  0  0  0  0  0  0  0  0  0  0  0
    3.7717    8.3391  -10.3266 O   0  0  0  0  0  0  0  0  0  0  0  0
    2.9390    7.4650  -11.1131 O   0  0  0  0  0  0  0  0  0  0  0  0
    1.4095    8.7097   -6.6933 O   0  0  0  0  0  0  0  0  0  0  0  0
    2.4015    0.6368   -8.7712 C   0  0  0  0  0  0  0  0  0  0  0  0
    3.5921    0.0359   -8.9777 N   0  0  0  0  0  0  0  0  0  0  0  0
    3.6243   -1.0817   -9.6969 N   0  3  0  0  0  0  0  0  0  0  0  0
    4.8132   -1.6878   -9.8880 F   0  0  0  0  0  0  0  0  0  0  0  0
    2.5330   -1.6179  -10.2589 C   0  0  0  0  0  0  0  0  0  0  0  0
    1.2656   -1.0457  -10.0829 C   0  0  0  0  0  0  0  0  0  0  0  0
    1.2044    0.1235   -9.2952 C   0  0  0  0  0  0  0  0  0  0  0  0
   -0.0420    0.7411   -9.1017 C   0  0  0  0  0  0  0  0  0  0  0  0
   -1.2066    0.2099   -9.6636 C   0  0  0  0  0  0  0  0  0  0  0  0
   -2.4612    0.9518   -9.5278 C   0  0  0  0  0  0  0  0  0  0  0  0
   -2.4488    2.0983   -9.1052 O   0  0  0  0  0  0  0  0  0  0  0  0
   -3.7168    0.2592   -9.9990 C   0  0  0  0  0  0  0  0  0  0  0  0
   -4.7396    0.9003  -10.1821 O   0  0  0  0  0  0  0  0  0  0  0  0
   -3.5554   -1.2259  -10.2118 C   0  0  1  0  0  0  0  0  0  0  0  0
   -2.3195   -1.5400  -10.8930 O   0  0  0  0  0  0  0  0  0  0  0  0
   -1.1815   -0.9662  -10.3956 C   0  0  0  0  0  0  0  0  0  0  0  0
    0.0607   -1.5687  -10.6469 C   0  0  0  0  0  0  0  0  0  0  0  0
    0.1153   -3.0895  -11.8051 Br  0  0  0  0  0  0  0  0  0  0  0  0
   -3.6850   -2.0113   -8.9374 C   0  0  1  0  0  0  0  0  0  0  0  0
   -2.6449   -1.8638   -7.9587 O   0  0  0  0  0  0  0  0  0  0  0  0
   -5.0070   -2.1574   -8.4116 O   0  0  0  0  0  0  0  0  0  0  0  0
   -4.4197   -3.2585   -8.8972 C   0  0  0  0  0  0  0  0  0  0  0  0
   -4.7367   -4.0236   -9.7891 O   0  0  0  0  0  0  0  0  0  0  0  0
    0.6795   -0.2456   -4.2997 C   0  0  0  0  0  0  0  0  0  0  0  0
    1.0927   -0.9411   -3.3896 O   0  0  0  0  0  0  0  0  0  0  0  0
   -0.4316   -0.6949   -5.1990 C   0  0  0  0  0  0  0  0  0  0  0  0
   -0.4457   -1.8221   -5.6640 O   0  0  0  0  0  0  0  0  0  0  0  0
   -1.4349    0.3387   -5.6431 C   0  0  0  0  0  0  0  0  0  0  0  0
   -2.3798    0.0487   -6.3594 O   0  0  0  0  0  0  0  0  0  0  0  0
  1  2  1  0  0  0  0
  2  3  2  0  0  0  0
  3  4  1  0  0  0  0
  3 53  1  0  0  0  0
  4  5  1  0  0  0  0
  5  6  1  6  0  0  0
  5 49  1  0  0  0  0
  6  7  1  0  0  0  0
  7  8  2  0  0  0  0
  7 12  1  0  0  0  0
  8  9  1  0  0  0  0
  8 26  1  0  0  0  0
  9 10  1  0  0  0  0
 10 11  2  0  0  0  0
 10 21  1  0  0  0  0
 11 12  1  0  0  0  0
 11 13  1  0  0  0  0
 13 14  1  0  0  0  0
 13 19  1  0  0  0  0
 14 15  1  0  0  0  0
 15 16  2  0  0  0  0
 15 17  1  0  0  0  0
 17 18  1  0  0  0  0
 18 19  1  0  0  0  0
 18 25  1  0  0  0  0
 19 20  2  0  0  0  0
 20 21  1  0  0  0  0
 20 22  1  0  0  0  0
 22 23  1  0  0  0  0
 22 24  1  0  0  0  0
 23 24  1  0  0  0  0
 26 27  2  0  0  0  0
 26 32  1  0  0  0  0
 27 28  1  0  0  0  0
 28 29  1  0  0  0  0
 28 30  2  0  0  0  0
 30 31  1  0  0  0  0
 31 32  2  0  0  0  0
 31 42  1  0  0  0  0
 32 33  1  0  0  0  0
 33 34  2  0  0  0  0
 34 35  1  0  0  0  0
 34 41  1  0  0  0  0
 35 36  2  0  0  0  0
 35 37  1  0  0  0  0
 37 38  2  0  0  0  0
 39 37  1  1  0  0  0
 39 40  1  0  0  0  0
 39 44  1  0  0  0  0
 40 41  1  0  0  0  0
 41 42  2  0  0  0  0
 42 43  1  0  0  0  0
 44 45  1  1  0  0  0
 44 46  1  0  0  0  0
 44 47  1  0  0  0  0
 46 47  1  0  0  0  0
 47 48  2  0  0  0  0
 49 50  2  0  0  0  0
 49 51  1  0  0  0  0
 51 52  2  0  0  0  0
 51 53  1  0  0  0  0
 53 54  2  0  0  0  0
M  CHG  2  21   1  28   1
M  END
$$$$