
 OpenBabel10192023013D

 55 62  0  0  1  0  0  0  0  0999 V2000
    2.6985    7.1085    3.3281 O   0  0  0  0  0  0  0  0  0  0  0  0
    1.7964    6.7269    2.3718 C   0  0  0  0  0  0  0  0  0  0  0  0
    1.6099    5.4461    2.0360 C   0  0  0  0  0  0  0  0  0  0  0  0
    2.3603    4.4357    2.6122 O   0  0  0  0  0  0  0  0  0  0  0  0
    1.5753    3.3347    3.0635 C   0  0  2  0  0  0  0  0  0  0  0  0
    2.3993    2.3410    3.6849 O   0  0  0  0  0  0  0  0  0  0  0  0
    2.6309    2.4708    5.0415 C   0  0  0  0  0  0  0  0  0  0  0  0
    2.5918    3.7078    5.6491 N   0  0  0  0  0  0  0  0  0  0  0  0
    2.8735    3.8310    6.9906 C   0  0  0  0  0  0  0  0  0  0  0  0
    3.1608    2.7671    7.7646 C   0  0  0  0  0  0  0  0  0  0  0  0
    3.1888    1.4875    7.1910 O   0  0  0  0  0  0  0  0  0  0  0  0
    2.9180    1.3829    5.8078 C   0  0  0  0  0  0  0  0  0  0  0  0
    3.0088    0.0098    5.2839 C   0  0  0  0  0  0  0  0  0  0  0  0
    4.2539   -0.3301    4.8909 N   0  0  0  0  0  0  0  0  0  0  0  0
    4.4031   -1.5541    4.3858 C   0  0  0  0  0  0  0  0  0  0  0  0
    5.6359   -1.9218    4.0131 F   0  0  0  0  0  0  0  0  0  0  0  0
    3.4285   -2.4566    4.2440 N   0  0  0  0  0  0  0  0  0  0  0  0
    2.1990   -2.1187    4.6496 C   0  0  0  0  0  0  0  0  0  0  0  0
    1.9119   -0.8711    5.2179 C   0  0  0  0  0  0  0  0  0  0  0  0
    0.5910   -0.6189    5.6759 C   0  0  0  0  0  0  0  0  0  0  0  0
    0.3275    0.5495    6.2788 F   0  0  0  0  0  0  0  0  0  0  0  0
   -0.4244   -1.5727    5.5493 C   0  0  0  0  0  0  0  0  0  0  0  0
   -1.7905   -1.3182    6.0214 C   0  0  0  0  0  0  0  0  0  0  0  0
   -2.1448   -0.2259    6.4334 O   0  0  0  0  0  0  0  0  0  0  0  0
   -2.7609   -2.4820    6.0199 C   0  0  0  0  0  0  0  0  0  0  0  0
   -3.9220   -2.3245    6.3723 O   0  0  0  0  0  0  0  0  0  0  0  0
   -2.1523   -3.8240    5.6985 C   0  0  1  0  0  0  0  0  0  0  0  0
   -1.0609   -3.7828    4.7760 O   0  0  0  0  0  0  0  0  0  0  0  0
   -0.1388   -2.7934    4.9668 C   0  0  0  0  0  0  0  0  0  0  0  0
    1.1612   -3.0439    4.5208 C   0  0  0  0  0  0  0  0  0  0  0  0
    1.4201   -4.2440    3.9731 F   0  0  0  0  0  0  0  0  0  0  0  0
   -1.7405   -4.5486    6.9475 C   0  0  1  0  0  0  0  0  0  0  0  0
   -0.7339   -3.9066    7.7656 O   0  0  0  0  0  0  0  0  0  0  0  0
   -2.7745   -5.1883    7.6906 O   0  0  0  0  0  0  0  0  0  0  0  0
   -1.9047   -5.9975    7.0463 C   0  0  0  0  0  0  0  0  0  0  0  0
   -2.1110   -6.8486    6.2180 O   0  0  0  0  0  0  0  0  0  0  0  0
    3.4142    2.8959    9.1096 N   0  0  0  0  0  0  0  0  0  0  0  0
    3.3555    4.1254    9.7778 C   0  0  0  0  0  0  0  0  0  0  0  0
    3.0790    5.2513    9.0858 C   0  0  0  0  0  0  0  0  0  0  0  0
    2.8361    5.1774    7.6272 C   0  0  0  0  0  0  0  0  0  0  0  0
    2.5773    6.2220    6.9100 N   0  0  0  0  0  0  0  0  0  0  0  0
    2.5336    7.4558    7.5217 C   0  0  0  0  0  0  0  0  0  0  0  0
    2.3228    8.4356    6.8180 O   0  0  0  0  0  0  0  0  0  0  0  0
    2.7065    7.6372    8.8799 N   0  0  0  0  0  0  0  0  0  0  0  0
    2.9646    6.6132    9.6183 C   0  0  0  0  0  0  0  0  0  0  0  0
    3.5929    4.1607   11.2736 C   0  0  0  0  0  0  0  0  0  0  0  0
    3.8506    2.9255   11.7721 F   0  0  0  0  0  0  0  0  0  0  0  0
    4.6450    4.9519   11.5944 F   0  0  0  0  0  0  0  0  0  0  0  0
    2.5128    4.6422   11.9359 F   0  0  0  0  0  0  0  0  0  0  0  0
    0.8411    2.6931    1.8934 C   0  0  0  0  0  0  0  0  0  0  0  0
    0.7721    1.4967    1.6468 O   0  0  0  0  0  0  0  0  0  0  0  0
    0.0982    3.7008    1.0504 C   0  0  0  0  0  0  0  0  0  0  0  0
   -0.9225    3.3725    0.4644 O   0  0  0  0  0  0  0  0  0  0  0  0
    0.5694    5.1379    1.0193 C   0  0  0  0  0  0  0  0  0  0  0  0
    0.0951    5.9575    0.2503 O   0  0  0  0  0  0  0  0  0  0  0  0
  1  2  1  0  0  0  0
  2  3  2  0  0  0  0
  3  4  1  0  0  0  0
  3 54  1  0  0  0  0
  4  5  1  0  0  0  0
  5  6  1  6  0  0  0
  5 50  1  0  0  0  0
  6  7  1  0  0  0  0
  7  8  1  0  0  0  0
  7 12  2  0  0  0  0
  8  9  1  0  0  0  0
  9 10  2  0  0  0  0
  9 40  1  0  0  0  0
 10 11  1  0  0  0  0
 10 37  1  0  0  0  0
 11 12  1  0  0  0  0
 12 13  1  0  0  0  0
 13 14  2  0  0  0  0
 13 19  1  0  0  0  0
 14 15  1  0  0  0  0
 15 16  1  0  0  0  0
 15 17  2  0  0  0  0
 17 18  1  0  0  0  0
 18 19  2  0  0  0  0
 18 30  1  0  0  0  0
 19 20  1  0  0  0  0
 20 21  1  0  0  0  0
 20 22  2  0  0  0  0
 22 23  1  0  0  0  0
 22 29  1  0  0  0  0
 23 24  2  0  0  0  0
 23 25  1  0  0  0  0
 25 26  2  0  0  0  0
 27 25  1  1  0  0  0
 27 28  1  0  0  0  0
 27 32  1  0  0  0  0
 28 29  1  0  0  0  0
 29 30  2  0  0  0  0
 30 31  1  0  0  0  0
 32 33  1  1  0  0  0
 32 34  1  0  0  0  0
 32 35  1  0  0  0  0
 34 35  1  0  0  0  0
 35 36  2  0  0  0  0
 37 38  1  0  0  0  0
 38 39  2  0  0  0  0
 38 46  1  0  0  0  0
 39 40  1  0  0  0  0
 39 45  1  0  0  0  0
 40 41  2  0  0  0  0
 41 42  1  0  0  0  0
 42 43  2  0  0  0  0
 42 44  1  0  0  0  0
 44 45  2  0  0  0  0
 46 47  1  0  0  0  0
 46 48  1  0  0  0  0
 46 49  1  0  0  0  0
 50 51  2  0  0  0  0
 50 52  1  0  0  0  0
 52 53  2  0  0  0  0
 52 54  1  0  0  0  0
 54 55  2  0  0  0  0
M  END
$$$$