
 OpenBabel09252009313D

 52 60  0  0  1  0  0  0  0  0999 V2000
    4.7899    0.5644   -9.5227 O   0  0  0  0  0  0  0  0  0  0  0  0
    5.1436   -0.5943   -8.8799 C   0  0  0  0  0  0  0  0  0  0  0  0
    5.1015   -0.7341   -7.5493 C   0  0  0  0  0  0  0  0  0  0  0  0
    4.7273    0.3031   -6.7150 O   0  0  0  0  0  0  0  0  0  0  0  0
    3.7451   -0.1017   -5.7554 C   0  0  2  0  0  0  0  0  0  0  0  0
    3.2523    1.0249   -5.0169 O   0  0  0  0  0  0  0  0  0  0  0  0
    2.6481    2.0460   -5.7464 C   0  0  0  0  0  0  0  0  0  0  0  0
    2.6834    3.3464   -5.3498 C   0  0  0  0  0  0  0  0  0  0  0  0
    2.0966    4.3545   -6.1275 O   0  0  0  0  0  0  0  0  0  0  0  0
    1.7108    4.0866   -7.4322 C   0  0  0  0  0  0  0  0  0  0  0  0
    1.5758    2.8265   -7.8625 C   0  0  0  0  0  0  0  0  0  0  0  0
    1.8968    1.6606   -7.0050 C   0  0  0  0  0  0  0  0  0  0  0  0
    1.2246    2.5942   -9.2877 C   0  0  0  0  0  0  0  0  0  0  0  0
    1.0528    1.3963   -9.7415 N   0  0  0  0  0  0  0  0  0  0  0  0
    0.7851    1.2171  -11.0831 C   0  0  0  0  0  0  0  0  0  0  0  0
    0.6339    0.0723  -11.4899 O   0  0  0  0  0  0  0  0  0  0  0  0
    0.7071    2.2560  -11.9905 N   0  0  0  0  0  0  0  0  0  0  0  0
    0.8681    3.4610  -11.5631 C   0  0  0  0  0  0  0  0  0  0  0  0
    1.1243    3.7823  -10.1590 C   0  0  0  0  0  0  0  0  0  0  0  0
    1.2893    5.0144   -9.6382 C   0  0  0  0  0  0  0  0  0  0  0  0
    1.5133    5.1568   -8.2721 N   0  0  0  0  0  0  0  0  0  0  0  0
    1.2709    6.2631  -10.4321 C   0  0  0  0  0  0  0  0  0  0  0  0
    2.1127    7.3819  -10.1097 O   0  0  0  0  0  0  0  0  0  0  0  0
    2.3614    6.6113  -11.3009 O   0  0  0  0  0  0  0  0  0  0  0  0
    3.2754    3.8424   -4.0615 C   0  0  0  0  0  0  0  0  0  0  0  0
    3.2202    2.9504   -3.0468 N   0  0  0  0  0  0  0  0  0  0  0  0
    3.7166    3.3077   -1.8674 C   0  0  0  0  0  0  0  0  0  0  0  0
    3.6326    2.4070   -0.8300 N   0  0  0  0  0  0  0  0  0  0  0  0
    4.2452    4.4964   -1.5958 N   0  0  0  0  0  0  0  0  0  0  0  0
    4.2913    5.3943   -2.5756 C   0  0  0  0  0  0  0  0  0  0  0  0
    3.8000    5.1453   -3.8679 C   0  0  0  0  0  0  0  0  0  0  0  0
    3.8726    6.2066   -4.8125 C   0  0  0  0  0  0  0  0  0  0  0  0
    4.3987    7.4543   -4.4664 C   0  0  0  0  0  0  0  0  0  0  0  0
    4.9439    7.6562   -3.2127 C   0  0  0  0  0  0  0  0  0  0  0  0
    4.8611    6.6296   -2.2746 C   0  0  0  0  0  0  0  0  0  0  0  0
    5.5633    8.8072   -2.8171 O   0  0  0  0  0  0  0  0  0  0  0  0
    6.0021    9.6875   -3.8649 C   0  0  2  0  0  0  0  0  0  0  0  0
    5.0051    9.8565   -4.9840 C   0  0  0  0  0  0  0  0  0  0  0  0
    4.7702   10.9101   -5.5579 O   0  0  0  0  0  0  0  0  0  0  0  0
    4.3445    8.5692   -5.4178 C   0  0  0  0  0  0  0  0  0  0  0  0
    3.7776    8.4697   -6.4948 O   0  0  0  0  0  0  0  0  0  0  0  0
    7.3459    9.2690   -4.3980 C   0  0  1  0  0  0  0  0  0  0  0  0
    7.4489    7.9460   -4.9671 O   0  0  0  0  0  0  0  0  0  0  0  0
    8.0621   10.2632   -5.1403 O   0  0  0  0  0  0  0  0  0  0  0  0
    8.5648    9.9194   -3.9428 C   0  0  0  0  0  0  0  0  0  0  0  0
    8.8250   10.6032   -2.9760 O   0  0  0  0  0  0  0  0  0  0  0  0
    4.2854   -1.1678   -4.8058 C   0  0  0  0  0  0  0  0  0  0  0  0
    3.8578   -1.4147   -3.6868 O   0  0  0  0  0  0  0  0  0  0  0  0
    5.3309   -2.0557   -5.4448 C   0  0  0  0  0  0  0  0  0  0  0  0
    6.0513   -2.7692   -4.7652 O   0  0  0  0  0  0  0  0  0  0  0  0
    5.4720   -2.0433   -6.9525 C   0  0  0  0  0  0  0  0  0  0  0  0
    5.8041   -3.0295   -7.5863 O   0  0  0  0  0  0  0  0  0  0  0  0
  1  2  1  0  0  0  0
  2  3  2  0  0  0  0
  3  4  1  0  0  0  0
  3 51  1  0  0  0  0
  4  5  1  0  0  0  0
  5  6  1  1  0  0  0
  5 47  1  0  0  0  0
  6  7  1  0  0  0  0
  7  8  2  0  0  0  0
  7 12  1  0  0  0  0
  8  9  1  0  0  0  0
  8 25  1  0  0  0  0
  9 10  1  0  0  0  0
 10 11  2  0  0  0  0
 10 21  1  0  0  0  0
 11 12  1  0  0  0  0
 11 13  1  0  0  0  0
 13 14  2  0  0  0  0
 13 19  1  0  0  0  0
 14 15  1  0  0  0  0
 15 16  2  0  0  0  0
 15 17  1  0  0  0  0
 17 18  2  0  0  0  0
 18 19  1  0  0  0  0
 19 20  2  0  0  0  0
 20 21  1  0  0  0  0
 20 22  1  0  0  0  0
 22 23  1  0  0  0  0
 22 24  1  0  0  0  0
 23 24  1  0  0  0  0
 25 26  2  0  0  0  0
 25 31  1  0  0  0  0
 26 27  1  0  0  0  0
 27 28  1  0  0  0  0
 27 29  2  0  0  0  0
 29 30  1  0  0  0  0
 30 31  2  0  0  0  0
 30 35  1  0  0  0  0
 31 32  1  0  0  0  0
 32 33  2  0  0  0  0
 33 34  1  0  0  0  0
 33 40  1  0  0  0  0
 34 35  2  0  0  0  0
 34 36  1  0  0  0  0
 37 36  1  1  0  0  0
 37 38  1  0  0  0  0
 37 42  1  0  0  0  0
 38 39  2  0  0  0  0
 38 40  1  0  0  0  0
 40 41  2  0  0  0  0
 42 43  1  6  0  0  0
 42 44  1  0  0  0  0
 42 45  1  0  0  0  0
 44 45  1  0  0  0  0
 45 46  2  0  0  0  0
 47 48  2  0  0  0  0
 47 49  1  0  0  0  0
 49 50  2  0  0  0  0
 49 51  1  0  0  0  0
 51 52  2  0  0  0  0
M  END
$$$$