
 OpenBabel11262001053D

 54 62  0  0  1  0  0  0  0  0999 V2000
   -2.5127   -2.0389   -5.5336 O   0  0  0  0  0  0  0  0  0  0  0  0
   -2.1452   -1.8428   -4.2249 C   0  0  0  0  0  0  0  0  0  0  0  0
   -0.8729   -1.9107   -3.8125 C   0  0  0  0  0  0  0  0  0  0  0  0
    0.1252   -2.2089   -4.7210 O   0  0  0  0  0  0  0  0  0  0  0  0
    1.4840   -2.1947   -4.2849 C   0  0  2  0  0  0  0  0  0  0  0  0
    2.2735   -3.1061   -5.1154 O   0  0  0  0  0  0  0  0  0  0  0  0
    2.3225   -2.8571   -6.4836 C   0  0  0  0  0  0  0  0  0  0  0  0
    2.4380   -3.8491   -7.4083 C   0  0  0  0  0  0  0  0  0  0  0  0
    2.5591   -3.5408   -8.7781 O   0  0  0  0  0  0  0  0  0  0  0  0
    2.7103   -2.2180   -9.2122 C   0  0  0  0  0  0  0  0  0  0  0  0
    2.6309   -1.1954   -8.3441 C   0  0  0  0  0  0  0  0  0  0  0  0
    2.3596   -1.4060   -6.8918 C   0  0  0  0  0  0  0  0  0  0  0  0
    2.7763    0.2375   -8.7683 C   0  0  3  0  0  0  0  0  0  0  0  0
    3.9336    0.7657   -8.1464 O   0  0  0  0  0  0  0  0  0  0  0  0
    4.1848    2.0824   -8.3907 C   0  0  0  0  0  0  0  0  0  0  0  0
    4.9289    2.7361   -7.6806 O   0  0  0  0  0  0  0  0  0  0  0  0
    3.5081    2.6087   -9.4418 O   0  0  0  0  0  0  0  0  0  0  0  0
    3.2013    1.8003  -10.5735 C   0  0  3  0  0  0  0  0  0  0  0  0
    3.0114    0.3654  -10.2197 C   0  0  0  0  0  0  0  0  0  0  0  0
    3.0688   -0.6976  -11.0529 C   0  0  0  0  0  0  0  0  0  0  0  0
    2.9338   -1.9914  -10.5577 O   0  3  0  0  0  0  0  0  0  0  0  0
    3.2895   -0.5693  -12.5119 C   0  0  0  0  0  0  0  0  0  0  0  0
    4.6119   -0.5857  -13.0618 O   0  0  0  0  0  0  0  0  0  0  0  0
    3.7239   -1.6985  -13.2868 O   0  0  0  0  0  0  0  0  0  0  0  0
    1.9501    2.2109  -11.0888 O   0  0  0  0  0  0  0  0  0  0  0  0
    2.4475   -5.3338   -7.0853 C   0  0  0  0  0  0  0  0  0  0  0  0
    1.7244   -5.7732   -5.9731 C   0  0  0  0  0  0  0  0  0  0  0  0
    1.7307   -7.0530   -5.5885 N   0  3  0  0  0  0  0  0  0  0  0  0
    1.0232   -7.4102   -4.4993 F   0  0  0  0  0  0  0  0  0  0  0  0
    2.3880   -7.9905   -6.2374 N   0  0  0  0  0  0  0  0  0  0  0  0
    3.0309   -7.6887   -7.3631 C   0  0  0  0  0  0  0  0  0  0  0  0
    3.0945   -6.3590   -7.8500 C   0  0  0  0  0  0  0  0  0  0  0  0
    3.7657   -6.1779   -9.0851 C   0  0  0  0  0  0  0  0  0  0  0  0
    4.2582   -7.2581   -9.8336 C   0  0  0  0  0  0  0  0  0  0  0  0
    4.7104   -7.0345  -11.2104 C   0  0  0  0  0  0  0  0  0  0  0  0
    4.5340   -5.9666  -11.7747 O   0  0  0  0  0  0  0  0  0  0  0  0
    5.2836   -8.2535  -11.8843 C   0  0  0  0  0  0  0  0  0  0  0  0
    6.3186   -8.1812  -12.5223 O   0  0  0  0  0  0  0  0  0  0  0  0
    4.5054   -9.5029  -11.5453 C   0  0  1  0  0  0  0  0  0  0  0  0
    4.4642   -9.6676  -10.1040 O   0  0  0  0  0  0  0  0  0  0  0  0
    4.1674   -8.5541   -9.3586 C   0  0  0  0  0  0  0  0  0  0  0  0
    3.6019   -8.7390   -8.0980 C   0  0  0  0  0  0  0  0  0  0  0  0
    3.4977   -9.9900   -7.6190 F   0  0  0  0  0  0  0  0  0  0  0  0
    3.1365   -9.4902  -12.1941 C   0  0  1  0  0  0  0  0  0  0  0  0
    3.1286   -9.3751  -13.6292 O   0  0  0  0  0  0  0  0  0  0  0  0
    2.1704  -10.3954  -11.6416 O   0  0  0  0  0  0  0  0  0  0  0  0
    1.9041   -9.1004  -11.5454 C   0  0  0  0  0  0  0  0  0  0  0  0
    1.6522   -8.3632  -10.5912 O   0  0  0  0  0  0  0  0  0  0  0  0
    1.6541   -2.6265   -2.8205 C   0  0  3  0  0  0  0  0  0  0  0  0
    0.8257   -1.7316   -1.9113 C   0  0  3  0  0  0  0  0  0  0  0  0
   -0.6178   -1.7395   -2.3445 C   0  0  0  0  0  0  0  0  0  0  0  0
   -1.5417   -1.5869   -1.5483 O   0  0  0  0  0  0  0  0  0  0  0  0
    0.9890   -2.2036   -0.6382 F   0  0  0  0  0  0  0  0  0  0  0  0
    1.2756   -4.0125   -2.6492 O   0  0  0  0  0  0  0  0  0  0  0  0
  1  2  1  0  0  0  0
  2  3  2  0  0  0  0
  3  4  1  0  0  0  0
  3 51  1  0  0  0  0
  4  5  1  0  0  0  0
  5  6  1  6  0  0  0
  5 49  1  0  0  0  0
  6  7  1  0  0  0  0
  7  8  2  0  0  0  0
  7 12  1  0  0  0  0
  8  9  1  0  0  0  0
  8 26  1  0  0  0  0
  9 10  1  0  0  0  0
 10 11  2  0  0  0  0
 10 21  1  0  0  0  0
 11 12  1  0  0  0  0
 11 13  1  0  0  0  0
 13 14  1  0  0  0  0
 13 19  1  0  0  0  0
 14 15  1  0  0  0  0
 15 16  2  0  0  0  0
 15 17  1  0  0  0  0
 17 18  1  0  0  0  0
 18 19  1  0  0  0  0
 18 25  1  0  0  0  0
 19 20  2  0  0  0  0
 20 21  1  0  0  0  0
 20 22  1  0  0  0  0
 22 23  1  0  0  0  0
 22 24  1  0  0  0  0
 23 24  1  0  0  0  0
 26 27  2  0  0  0  0
 26 32  1  0  0  0  0
 27 28  1  0  0  0  0
 28 29  1  0  0  0  0
 28 30  2  0  0  0  0
 30 31  1  0  0  0  0
 31 32  2  0  0  0  0
 31 42  1  0  0  0  0
 32 33  1  0  0  0  0
 33 34  2  0  0  0  0
 34 35  1  0  0  0  0
 34 41  1  0  0  0  0
 35 36  2  0  0  0  0
 35 37  1  0  0  0  0
 37 38  2  0  0  0  0
 39 37  1  1  0  0  0
 39 40  1  0  0  0  0
 39 44  1  0  0  0  0
 40 41  1  0  0  0  0
 41 42  2  0  0  0  0
 42 43  1  0  0  0  0
 44 45  1  6  0  0  0
 44 46  1  0  0  0  0
 44 47  1  0  0  0  0
 46 47  1  0  0  0  0
 47 48  2  0  0  0  0
 49 50  1  0  0  0  0
 49 54  1  0  0  0  0
 50 51  1  0  0  0  0
 50 53  1  0  0  0  0
 51 52  2  0  0  0  0
M  CHG  2  21   1  28   1
M  END
$$$$