
 OpenBabel11212021223D

 53 61  0  0  1  0  0  0  0  0999 V2000
    3.9131    6.8137   -4.9730 O   0  0  0  0  0  0  0  0  0  0  0  0
    3.2875    5.6682   -5.3925 C   0  0  0  0  0  0  0  0  0  0  0  0
    2.9237    4.6818   -4.5624 C   0  0  0  0  0  0  0  0  0  0  0  0
    3.2021    4.7407   -3.2084 O   0  0  0  0  0  0  0  0  0  0  0  0
    2.2053    4.1543   -2.3693 C   0  0  2  0  0  0  0  0  0  0  0  0
    2.5551    4.3315   -0.9756 O   0  0  0  0  0  0  0  0  0  0  0  0
    2.6523    5.6520   -0.5399 C   0  0  0  0  0  0  0  0  0  0  0  0
    3.4862    6.0115    0.4605 C   0  0  0  0  0  0  0  0  0  0  0  0
    3.6797    7.3346    0.8579 O   0  0  0  0  0  0  0  0  0  0  0  0
    2.8815    8.3304    0.3088 C   0  0  0  0  0  0  0  0  0  0  0  0
    1.9222    8.0504   -0.5875 C   0  0  0  0  0  0  0  0  0  0  0  0
    1.7267    6.6815   -1.1444 C   0  0  0  0  0  0  0  0  0  0  0  0
    0.9971    9.1250   -1.0928 C   0  0  3  0  0  0  0  0  0  0  0  0
   -0.3167    8.7576   -0.6935 O   0  0  0  0  0  0  0  0  0  0  0  0
   -1.3348    9.5942   -1.0107 C   0  0  0  0  0  0  0  0  0  0  0  0
   -2.4952    9.2109   -1.0151 O   0  0  0  0  0  0  0  0  0  0  0  0
   -0.9855   10.8587   -1.3573 O   0  0  0  0  0  0  0  0  0  0  0  0
    0.2771   11.4649   -1.0204 C   0  0  0  0  0  0  0  0  0  0  0  0
    1.2715   10.4758   -0.5377 C   0  0  0  0  0  0  0  0  0  0  0  0
    2.2972   10.7027    0.3129 C   0  0  0  0  0  0  0  0  0  0  0  0
    3.0782    9.6265    0.7209 N   0  0  0  0  0  0  0  0  0  0  0  0
    2.6567   12.0364    0.8489 C   0  0  0  0  0  0  0  0  0  0  0  0
    4.0179   12.3961    1.1412 O   0  0  0  0  0  0  0  0  0  0  0  0
    3.3289   13.0129    0.0365 O   0  0  0  0  0  0  0  0  0  0  0  0
    4.2613    5.0487    1.2608 C   0  0  0  0  0  0  0  0  0  0  0  0
    5.5285    4.6999    0.8218 C   0  0  0  0  0  0  0  0  0  0  0  0
    6.2807    3.8643    1.5404 N   0  3  0  0  0  0  0  0  0  0  0  0
    7.5032    3.5275    1.0875 F   0  0  0  0  0  0  0  0  0  0  0  0
    5.8810    3.3566    2.6904 N   0  0  0  0  0  0  0  0  0  0  0  0
    4.6633    3.6409    3.1760 C   0  0  0  0  0  0  0  0  0  0  0  0
    3.7890    4.4899    2.4741 C   0  0  0  0  0  0  0  0  0  0  0  0
    2.4981    4.7261    3.0149 C   0  0  0  0  0  0  0  0  0  0  0  0
    2.0831    4.1354    4.2216 C   0  0  0  0  0  0  0  0  0  0  0  0
    0.7091    4.3291    4.6996 C   0  0  0  0  0  0  0  0  0  0  0  0
   -0.0645    5.0627    4.1062 O   0  0  0  0  0  0  0  0  0  0  0  0
    0.2844    3.5572    5.9252 C   0  0  0  0  0  0  0  0  0  0  0  0
   -0.8995    3.3861    6.1755 O   0  0  0  0  0  0  0  0  0  0  0  0
    1.4204    3.0841    6.7957 C   0  0  1  0  0  0  0  0  0  0  0  0
    2.6357    2.7374    6.1240 O   0  0  0  0  0  0  0  0  0  0  0  0
    2.9510    3.3347    4.9395 C   0  0  0  0  0  0  0  0  0  0  0  0
    4.2302    3.0945    4.4024 C   0  0  0  0  0  0  0  0  0  0  0  0
    5.4425    1.9727    5.3781 Br  0  0  0  0  0  0  0  0  0  0  0  0
    1.7076    4.0560    7.8983 C   0  0  1  0  0  0  0  0  0  0  0  0
    2.0806    5.4004    7.5040 O   0  0  0  0  0  0  0  0  0  0  0  0
    0.8506    4.0034    9.0412 O   0  0  0  0  0  0  0  0  0  0  0  0
    2.1194    3.5889    9.2132 C   0  0  0  0  0  0  0  0  0  0  0  0
    2.5607    2.5289    9.5900 O   0  0  0  0  0  0  0  0  0  0  0  0
    2.0702    2.6743   -2.6897 C   0  0  0  0  0  0  0  0  0  0  0  0
    2.0916    1.7631   -1.8756 O   0  0  0  0  0  0  0  0  0  0  0  0
    1.8814    2.4163   -4.1675 C   0  0  0  0  0  0  0  0  0  0  0  0
    1.4109    1.3570   -4.5487 O   0  0  0  0  0  0  0  0  0  0  0  0
    2.2600    3.4916   -5.1655 C   0  0  0  0  0  0  0  0  0  0  0  0
    2.0219    3.3788   -6.3560 O   0  0  0  0  0  0  0  0  0  0  0  0
  1  2  1  0  0  0  0
  2  3  2  0  0  0  0
  3  4  1  0  0  0  0
  3 52  1  0  0  0  0
  4  5  1  0  0  0  0
  5  6  1  1  0  0  0
  5 48  1  0  0  0  0
  6  7  1  0  0  0  0
  7  8  2  0  0  0  0
  7 12  1  0  0  0  0
  8  9  1  0  0  0  0
  8 25  1  0  0  0  0
  9 10  1  0  0  0  0
 10 11  2  0  0  0  0
 10 21  1  0  0  0  0
 11 12  1  0  0  0  0
 11 13  1  0  0  0  0
 13 14  1  0  0  0  0
 13 19  1  0  0  0  0
 14 15  1  0  0  0  0
 15 16  2  0  0  0  0
 15 17  1  0  0  0  0
 17 18  1  0  0  0  0
 18 19  1  0  0  0  0
 19 20  2  0  0  0  0
 20 21  1  0  0  0  0
 20 22  1  0  0  0  0
 22 23  1  0  0  0  0
 22 24  1  0  0  0  0
 23 24  1  0  0  0  0
 25 26  2  0  0  0  0
 25 31  1  0  0  0  0
 26 27  1  0  0  0  0
 27 28  1  0  0  0  0
 27 29  2  0  0  0  0
 29 30  1  0  0  0  0
 30 31  2  0  0  0  0
 30 41  1  0  0  0  0
 31 32  1  0  0  0  0
 32 33  2  0  0  0  0
 33 34  1  0  0  0  0
 33 40  1  0  0  0  0
 34 35  2  0  0  0  0
 34 36  1  0  0  0  0
 36 37  2  0  0  0  0
 38 36  1  6  0  0  0
 38 39  1  0  0  0  0
 38 43  1  0  0  0  0
 39 40  1  0  0  0  0
 40 41  2  0  0  0  0
 41 42  1  0  0  0  0
 43 44  1  6  0  0  0
 43 45  1  0  0  0  0
 43 46  1  0  0  0  0
 45 46  1  0  0  0  0
 46 47  2  0  0  0  0
 48 49  2  0  0  0  0
 48 50  1  0  0  0  0
 50 51  2  0  0  0  0
 50 52  1  0  0  0  0
 52 53  2  0  0  0  0
M  CHG  1  27   1
M  END
$$$$