
 OpenBabel10122020473D

 51 59  0  0  1  0  0  0  0  0999 V2000
    7.6551    5.0587   -2.2365 O   0  0  0  0  0  0  0  0  0  0  0  0
    7.5588    3.7398   -2.5978 C   0  0  0  0  0  0  0  0  0  0  0  0
    6.3969    3.0749   -2.6227 C   0  0  0  0  0  0  0  0  0  0  0  0
    5.2178    3.6901   -2.2414 O   0  0  0  0  0  0  0  0  0  0  0  0
    4.0575    3.2431   -2.9402 C   0  0  2  0  0  0  0  0  0  0  0  0
    2.8813    3.9563   -2.5297 O   0  0  0  0  0  0  0  0  0  0  0  0
    2.8781    5.3320   -2.7210 C   0  0  0  0  0  0  0  0  0  0  0  0
    2.1863    6.1447   -1.8938 C   0  0  0  0  0  0  0  0  0  0  0  0
    2.1231    7.5253   -2.0546 O   0  0  0  0  0  0  0  0  0  0  0  0
    2.7778    8.1180   -3.1197 C   0  0  0  0  0  0  0  0  0  0  0  0
    3.4585    7.3916   -4.0194 C   0  0  0  0  0  0  0  0  0  0  0  0
    3.6024    5.9099   -3.9185 C   0  0  0  0  0  0  0  0  0  0  0  0
    4.1124    8.1147   -5.1463 C   0  0  0  0  0  0  0  0  0  0  0  0
    4.7600    7.4702   -6.0606 N   0  0  0  0  0  0  0  0  0  0  0  0
    5.3533    8.1766   -7.0900 C   0  0  0  0  0  0  0  0  0  0  0  0
    5.9426    7.5434   -7.9562 O   0  0  0  0  0  0  0  0  0  0  0  0
    5.3209    9.5545   -7.1893 N   0  0  0  0  0  0  0  0  0  0  0  0
    4.6798   10.2225   -6.2945 C   0  0  0  0  0  0  0  0  0  0  0  0
    3.9945    9.5905   -5.1691 C   0  0  0  0  0  0  0  0  0  0  0  0
    3.3108   10.2302   -4.2001 C   0  0  0  0  0  0  0  0  0  0  0  0
    2.7020    9.4840   -3.2039 N   0  0  0  0  0  0  0  0  0  0  0  0
    3.1532   11.7000   -4.1039 C   0  0  0  0  0  0  0  0  0  0  0  0
    2.0873   12.3884   -4.7740 O   0  0  0  0  0  0  0  0  0  0  0  0
    2.0971   12.3038   -3.3356 O   0  0  0  0  0  0  0  0  0  0  0  0
    1.4238    5.6792   -0.7224 C   0  0  0  0  0  0  0  0  0  0  0  0
    2.1337    5.6417    0.4211 N   0  0  0  0  0  0  0  0  0  0  0  0
    1.4422    5.3401    1.5198 C   0  0  0  0  0  0  0  0  0  0  0  0
    0.1304    5.1018    1.5803 N   0  0  0  0  0  0  0  0  0  0  0  0
   -0.5615    5.1537    0.4532 C   0  0  0  0  0  0  0  0  0  0  0  0
    0.0443    5.4307   -0.7756 C   0  0  0  0  0  0  0  0  0  0  0  0
   -0.7669    5.4625   -1.9342 C   0  0  0  0  0  0  0  0  0  0  0  0
   -2.1334    5.2436   -1.8098 C   0  0  0  0  0  0  0  0  0  0  0  0
   -2.6550    5.0263   -0.5531 C   0  0  0  0  0  0  0  0  0  0  0  0
   -1.8805    4.9599    0.5468 N   0  0  0  0  0  0  0  0  0  0  0  0
   -3.9865    4.8672   -0.2885 O   0  0  0  0  0  0  0  0  0  0  0  0
   -4.9077    5.2756   -1.3052 C   0  0  2  0  0  0  0  0  0  0  0  0
   -4.4626    4.8994   -2.6925 C   0  0  0  0  0  0  0  0  0  0  0  0
   -5.1611    4.3760   -3.5456 O   0  0  0  0  0  0  0  0  0  0  0  0
   -3.0239    5.2560   -2.9679 C   0  0  0  0  0  0  0  0  0  0  0  0
   -2.6419    5.5620   -4.0846 O   0  0  0  0  0  0  0  0  0  0  0  0
   -5.2001    6.7463   -1.2080 C   0  0  1  0  0  0  0  0  0  0  0  0
   -4.0847    7.6520   -1.3454 O   0  0  0  0  0  0  0  0  0  0  0  0
   -6.3760    7.1999   -1.8856 O   0  0  0  0  0  0  0  0  0  0  0  0
   -6.4021    7.2251   -0.5422 C   0  0  0  0  0  0  0  0  0  0  0  0
   -7.1907    6.7241    0.2291 O   0  0  0  0  0  0  0  0  0  0  0  0
    3.8509    1.7613   -2.6801 C   0  0  0  0  0  0  0  0  0  0  0  0
    2.8274    1.2207   -2.2892 O   0  0  0  0  0  0  0  0  0  0  0  0
    5.0802    0.9554   -3.0106 C   0  0  0  0  0  0  0  0  0  0  0  0
    4.9787   -0.2244   -3.3090 O   0  0  0  0  0  0  0  0  0  0  0  0
    6.4303    1.6412   -3.0302 C   0  0  0  0  0  0  0  0  0  0  0  0
    7.4419    1.0536   -3.3778 O   0  0  0  0  0  0  0  0  0  0  0  0
  1  2  1  0  0  0  0
  2  3  2  0  0  0  0
  3  4  1  0  0  0  0
  3 50  1  0  0  0  0
  4  5  1  0  0  0  0
  5  6  1  1  0  0  0
  5 46  1  0  0  0  0
  6  7  1  0  0  0  0
  7  8  2  0  0  0  0
  7 12  1  0  0  0  0
  8  9  1  0  0  0  0
  8 25  1  0  0  0  0
  9 10  1  0  0  0  0
 10 11  2  0  0  0  0
 10 21  1  0  0  0  0
 11 12  1  0  0  0  0
 11 13  1  0  0  0  0
 13 14  2  0  0  0  0
 13 19  1  0  0  0  0
 14 15  1  0  0  0  0
 15 16  2  0  0  0  0
 15 17  1  0  0  0  0
 17 18  2  0  0  0  0
 18 19  1  0  0  0  0
 19 20  2  0  0  0  0
 20 21  1  0  0  0  0
 20 22  1  0  0  0  0
 22 23  1  0  0  0  0
 22 24  1  0  0  0  0
 23 24  1  0  0  0  0
 25 26  2  0  0  0  0
 25 30  1  0  0  0  0
 26 27  1  0  0  0  0
 27 28  2  0  0  0  0
 28 29  1  0  0  0  0
 29 30  2  0  0  0  0
 29 34  1  0  0  0  0
 30 31  1  0  0  0  0
 31 32  2  0  0  0  0
 32 33  1  0  0  0  0
 32 39  1  0  0  0  0
 33 34  2  0  0  0  0
 33 35  1  0  0  0  0
 36 35  1  1  0  0  0
 36 37  1  0  0  0  0
 36 41  1  0  0  0  0
 37 38  2  0  0  0  0
 37 39  1  0  0  0  0
 39 40  2  0  0  0  0
 41 42  1  6  0  0  0
 41 43  1  0  0  0  0
 41 44  1  0  0  0  0
 43 44  1  0  0  0  0
 44 45  2  0  0  0  0
 46 47  2  0  0  0  0
 46 48  1  0  0  0  0
 48 49  2  0  0  0  0
 48 50  1  0  0  0  0
 50 51  2  0  0  0  0
M  END
$$$$