
 OpenBabel09252006163D

 53 61  0  0  1  0  0  0  0  0999 V2000
    5.5743   -0.7137   -8.7039 O   0  0  0  0  0  0  0  0  0  0  0  0
    5.0898   -1.8823   -8.1793 C   0  0  0  0  0  0  0  0  0  0  0  0
    4.4194   -1.9406   -7.0225 C   0  0  0  0  0  0  0  0  0  0  0  0
    4.2059   -0.8134   -6.2504 O   0  0  0  0  0  0  0  0  0  0  0  0
    2.9646   -0.8236   -5.5406 C   0  0  2  0  0  0  0  0  0  0  0  0
    2.7462    0.4397   -4.8920 O   0  0  0  0  0  0  0  0  0  0  0  0
    2.6234    1.5384   -5.7425 C   0  0  0  0  0  0  0  0  0  0  0  0
    3.0033    2.7797   -5.3638 C   0  0  0  0  0  0  0  0  0  0  0  0
    2.9151    3.8975   -6.1948 O   0  0  0  0  0  0  0  0  0  0  0  0
    2.3662    3.7587   -7.4627 C   0  0  0  0  0  0  0  0  0  0  0  0
    1.8949    2.5796   -7.8925 C   0  0  0  0  0  0  0  0  0  0  0  0
    1.9758    1.3335   -7.0902 C   0  0  0  0  0  0  0  0  0  0  0  0
    1.2684    2.5124   -9.2383 C   0  0  0  0  0  0  0  0  0  0  0  0
    0.8026    1.3952   -9.6919 N   0  0  0  0  0  0  0  0  0  0  0  0
    0.2148    1.3701  -10.9406 C   0  0  0  0  0  0  0  0  0  0  0  0
   -0.1773    0.2922  -11.3686 O   0  0  0  0  0  0  0  0  0  0  0  0
    0.0445    2.4950  -11.7246 N   0  0  0  0  0  0  0  0  0  0  0  0
    0.4998    3.6210  -11.2952 C   0  0  0  0  0  0  0  0  0  0  0  0
    1.1896    3.7670  -10.0139 C   0  0  0  0  0  0  0  0  0  0  0  0
    1.7188    4.9015   -9.5131 C   0  0  0  0  0  0  0  0  0  0  0  0
    2.3183    4.8756   -8.2597 N   0  0  0  0  0  0  0  0  0  0  0  0
    1.6991    6.2125  -10.2023 C   0  0  0  0  0  0  0  0  0  0  0  0
    0.6052    7.1271  -10.0364 O   0  0  0  0  0  0  0  0  0  0  0  0
    1.9014    7.4487   -9.4953 O   0  0  0  0  0  0  0  0  0  0  0  0
    3.5059    3.0888   -4.0132 C   0  0  0  0  0  0  0  0  0  0  0  0
    2.5379    3.4859   -3.1615 N   0  0  0  0  0  0  0  0  0  0  0  0
    2.9317    3.7566   -1.9217 C   0  0  0  0  0  0  0  0  0  0  0  0
    4.1868    3.6789   -1.4680 N   0  0  0  0  0  0  0  0  0  0  0  0
    5.1586    3.2700   -2.3081 C   0  0  0  0  0  0  0  0  0  0  0  0
    4.8577    2.9678   -3.6502 C   0  0  0  0  0  0  0  0  0  0  0  0
    5.8847    2.5757   -4.5394 C   0  0  0  0  0  0  0  0  0  0  0  0
    7.1944    2.4331   -4.0889 C   0  0  0  0  0  0  0  0  0  0  0  0
    8.2570    2.0415   -5.0248 C   0  0  0  0  0  0  0  0  0  0  0  0
    8.0321    1.8210   -6.2032 O   0  0  0  0  0  0  0  0  0  0  0  0
    9.6474    1.9238   -4.4491 C   0  0  0  0  0  0  0  0  0  0  0  0
   10.6364    2.0419   -5.1572 O   0  0  0  0  0  0  0  0  0  0  0  0
    9.6733    1.6748   -2.9622 C   0  0  1  0  0  0  0  0  0  0  0  0
    8.7706    2.5321   -2.2478 O   0  0  0  0  0  0  0  0  0  0  0  0
    7.5020    2.6757   -2.7578 C   0  0  0  0  0  0  0  0  0  0  0  0
    6.4993    3.1208   -1.8612 C   0  0  0  0  0  0  0  0  0  0  0  0
    6.9512    3.4524   -0.5525 N   0  0  0  0  0  0  0  0  0  0  0  0
    6.2082    3.2776    0.4852 C   0  0  0  0  0  0  0  0  0  0  0  0
    9.4786    0.2448   -2.5366 C   0  0  1  0  0  0  0  0  0  0  0  0
    9.5121   -0.0105   -1.1167 O   0  0  0  0  0  0  0  0  0  0  0  0
    8.4819   -0.5018   -3.2366 O   0  0  0  0  0  0  0  0  0  0  0  0
    9.7639   -0.8844   -3.4025 C   0  0  0  0  0  0  0  0  0  0  0  0
   10.3993   -1.0003   -4.4336 O   0  0  0  0  0  0  0  0  0  0  0  0
    2.9491   -1.9679   -4.5354 C   0  0  0  0  0  0  0  0  0  0  0  0
    2.5305   -1.9197   -3.3883 O   0  0  0  0  0  0  0  0  0  0  0  0
    3.4463   -3.2665   -5.1321 C   0  0  0  0  0  0  0  0  0  0  0  0
    3.4517   -4.2951   -4.4745 O   0  0  0  0  0  0  0  0  0  0  0  0
    3.9546   -3.2737   -6.5578 C   0  0  0  0  0  0  0  0  0  0  0  0
    3.9457   -4.2813   -7.2435 O   0  0  0  0  0  0  0  0  0  0  0  0
  1  2  1  0  0  0  0
  2  3  2  0  0  0  0
  3  4  1  0  0  0  0
  3 52  1  0  0  0  0
  4  5  1  0  0  0  0
  5  6  1  1  0  0  0
  5 48  1  0  0  0  0
  6  7  1  0  0  0  0
  7  8  2  0  0  0  0
  7 12  1  0  0  0  0
  8  9  1  0  0  0  0
  8 25  1  0  0  0  0
  9 10  1  0  0  0  0
 10 11  2  0  0  0  0
 10 21  1  0  0  0  0
 11 12  1  0  0  0  0
 11 13  1  0  0  0  0
 13 14  2  0  0  0  0
 13 19  1  0  0  0  0
 14 15  1  0  0  0  0
 15 16  2  0  0  0  0
 15 17  1  0  0  0  0
 17 18  2  0  0  0  0
 18 19  1  0  0  0  0
 19 20  2  0  0  0  0
 20 21  1  0  0  0  0
 20 22  1  0  0  0  0
 22 23  1  0  0  0  0
 22 24  1  0  0  0  0
 23 24  1  0  0  0  0
 25 26  2  0  0  0  0
 25 30  1  0  0  0  0
 26 27  1  0  0  0  0
 27 28  2  0  0  0  0
 28 29  1  0  0  0  0
 29 30  2  0  0  0  0
 29 40  1  0  0  0  0
 30 31  1  0  0  0  0
 31 32  2  0  0  0  0
 32 33  1  0  0  0  0
 32 39  1  0  0  0  0
 33 34  2  0  0  0  0
 33 35  1  0  0  0  0
 35 36  2  0  0  0  0
 37 35  1  6  0  0  0
 37 38  1  0  0  0  0
 37 43  1  0  0  0  0
 38 39  1  0  0  0  0
 39 40  2  0  0  0  0
 40 41  1  0  0  0  0
 41 42  2  0  0  0  0
 43 44  1  1  0  0  0
 43 45  1  0  0  0  0
 43 46  1  0  0  0  0
 45 46  1  0  0  0  0
 46 47  2  0  0  0  0
 48 49  2  0  0  0  0
 48 50  1  0  0  0  0
 50 51  2  0  0  0  0
 50 52  1  0  0  0  0
 52 53  2  0  0  0  0
M  END
$$$$