
 OpenBabel11252016273D

 54 63  0  0  1  0  0  0  0  0999 V2000
   -5.7047   -9.4630   -9.2750 O   0  0  0  0  0  0  0  0  0  0  0  0
   -6.8025   -8.6361   -9.2734 C   0  0  0  0  0  0  0  0  0  0  0  0
   -6.7596   -7.3557   -8.8879 C   0  0  0  0  0  0  0  0  0  0  0  0
   -5.5860   -6.7887   -8.4145 O   0  0  0  0  0  0  0  0  0  0  0  0
   -5.3609   -5.4835   -8.9408 C   0  0  2  0  0  0  0  0  0  0  0  0
   -4.0578   -4.9851   -8.5474 O   0  0  0  0  0  0  0  0  0  0  0  0
   -2.9717   -5.7954   -8.8852 C   0  0  0  0  0  0  0  0  0  0  0  0
   -1.8395   -5.8223   -8.1385 C   0  0  0  0  0  0  0  0  0  0  0  0
   -0.7746   -6.6834   -8.4694 O   0  0  0  0  0  0  0  0  0  0  0  0
   -0.9415   -7.6833   -9.4334 C   0  0  0  0  0  0  0  0  0  0  0  0
   -1.9998   -7.6641  -10.2603 C   0  0  0  0  0  0  0  0  0  0  0  0
   -3.0661   -6.6224  -10.1541 C   0  0  0  0  0  0  0  0  0  0  0  0
   -2.2264   -8.7244  -11.3011 C   0  0  3  0  0  0  0  0  0  0  0  0
   -2.2708   -8.1004  -12.5711 O   0  0  0  0  0  0  0  0  0  0  0  0
   -2.5769   -8.9384  -13.6029 C   0  0  0  0  0  0  0  0  0  0  0  0
   -3.0282   -8.5268  -14.6569 O   0  0  0  0  0  0  0  0  0  0  0  0
   -2.3877  -10.2554  -13.3324 O   0  0  0  0  0  0  0  0  0  0  0  0
   -1.2859  -10.6208  -12.5106 C   0  0  3  0  0  0  0  0  0  0  0  0
   -1.1059   -9.6872  -11.3615 C   0  0  0  0  0  0  0  0  0  0  0  0
   -0.0686   -9.6635  -10.4947 C   0  0  0  0  0  0  0  0  0  0  0  0
    0.0070   -8.6839   -9.5125 O   0  3  0  0  0  0  0  0  0  0  0  0
    1.0597  -10.6226  -10.5439 C   0  0  0  0  0  0  0  0  0  0  0  0
    2.2373  -10.3272  -11.3051 O   0  0  0  0  0  0  0  0  0  0  0  0
    2.2930  -10.3260   -9.8656 O   0  0  0  0  0  0  0  0  0  0  0  0
   -1.5616  -11.8765  -11.9224 O   0  0  0  0  0  0  0  0  0  0  0  0
   -1.5705   -4.9334   -6.9494 C   0  0  0  0  0  0  0  0  0  0  0  0
   -2.0601   -3.6255   -6.9525 C   0  0  0  0  0  0  0  0  0  0  0  0
   -1.7908   -2.7727   -5.9573 N   0  3  0  0  0  0  0  0  0  0  0  0
   -2.3108   -1.5303   -6.0000 F   0  0  0  0  0  0  0  0  0  0  0  0
   -1.0054   -3.0846   -4.9475 N   0  0  0  0  0  0  0  0  0  0  0  0
   -0.4633   -4.3004   -4.8812 C   0  0  0  0  0  0  0  0  0  0  0  0
   -0.7415   -5.2884   -5.8493 C   0  0  0  0  0  0  0  0  0  0  0  0
   -0.1505   -6.5579   -5.6589 C   0  0  0  0  0  0  0  0  0  0  0  0
    0.7844   -6.7994   -4.6420 C   0  0  0  0  0  0  0  0  0  0  0  0
    1.0738   -5.8235   -3.7187 C   0  0  0  0  0  0  0  0  0  0  0  0
    0.4210   -4.5958   -3.8353 C   0  0  0  0  0  0  0  0  0  0  0  0
    0.6848   -3.6381   -2.9327 F   0  0  0  0  0  0  0  0  0  0  0  0
    1.9230   -6.0186   -2.6708 O   0  0  0  0  0  0  0  0  0  0  0  0
    2.9343   -7.0487   -2.8180 C   0  0  1  0  0  0  0  0  0  0  0  0
    2.6200   -8.2504   -3.6201 C   0  0  0  0  0  0  0  0  0  0  0  0
    3.2543   -9.2907   -3.5650 O   0  0  0  0  0  0  0  0  0  0  0  0
    1.5062   -8.0705   -4.6243 C   0  0  0  0  0  0  0  0  0  0  0  0
    1.2594   -8.9011   -5.4916 O   0  0  0  0  0  0  0  0  0  0  0  0
    4.2586   -6.5900   -2.9254 O   0  0  0  0  0  0  0  0  0  0  0  0
    3.8872   -7.2668   -1.6786 C   0  0  1  0  0  0  0  0  0  0  0  0
    3.4158   -6.4211   -0.5561 O   0  0  0  0  0  0  0  0  0  0  0  0
    4.6982   -6.6963   -0.6382 C   0  0  0  0  0  0  0  0  0  0  0  0
    5.4862   -7.1613    0.1515 O   0  0  0  0  0  0  0  0  0  0  0  0
   -6.4356   -4.5374   -8.4289 C   0  0  0  0  0  0  0  0  0  0  0  0
   -6.2501   -3.3215   -8.0096 N   0  0  0  0  0  0  0  0  0  0  0  0
   -7.8191   -5.1099   -8.5238 C   0  0  0  0  0  0  0  0  0  0  0  0
   -8.8593   -4.3692   -8.2980 N   0  0  0  0  0  0  0  0  0  0  0  0
   -8.0094   -6.5436   -8.9495 C   0  0  0  0  0  0  0  0  0  0  0  0
   -9.1621   -6.9560   -9.3590 N   0  0  0  0  0  0  0  0  0  0  0  0
  1  2  1  0  0  0  0
  2  3  2  0  0  0  0
  3  4  1  0  0  0  0
  3 53  1  0  0  0  0
  4  5  1  0  0  0  0
  5  6  1  1  0  0  0
  5 49  1  0  0  0  0
  6  7  1  0  0  0  0
  7  8  2  0  0  0  0
  7 12  1  0  0  0  0
  8  9  1  0  0  0  0
  8 26  1  0  0  0  0
  9 10  1  0  0  0  0
 10 11  2  0  0  0  0
 10 21  1  0  0  0  0
 11 12  1  0  0  0  0
 11 13  1  0  0  0  0
 13 14  1  0  0  0  0
 13 19  1  0  0  0  0
 14 15  1  0  0  0  0
 15 16  2  0  0  0  0
 15 17  1  0  0  0  0
 17 18  1  0  0  0  0
 18 19  1  0  0  0  0
 18 25  1  0  0  0  0
 19 20  2  0  0  0  0
 20 21  1  0  0  0  0
 20 22  1  0  0  0  0
 22 23  1  0  0  0  0
 22 24  1  0  0  0  0
 23 24  1  0  0  0  0
 26 27  2  0  0  0  0
 26 32  1  0  0  0  0
 27 28  1  0  0  0  0
 28 29  1  0  0  0  0
 28 30  2  0  0  0  0
 30 31  1  0  0  0  0
 31 32  2  0  0  0  0
 31 36  1  0  0  0  0
 32 33  1  0  0  0  0
 33 34  2  0  0  0  0
 34 35  1  0  0  0  0
 34 42  1  0  0  0  0
 35 36  2  0  0  0  0
 35 38  1  0  0  0  0
 36 37  1  0  0  0  0
 39 38  1  1  0  0  0
 39 40  1  0  0  0  0
 39 44  1  0  0  0  0
 39 45  1  0  0  0  0
 40 41  2  0  0  0  0
 40 42  1  0  0  0  0
 42 43  2  0  0  0  0
 45 44  1  6  0  0  0
 45 46  1  0  0  0  0
 45 47  1  0  0  0  0
 46 47  1  0  0  0  0
 47 48  2  0  0  0  0
 49 50  2  0  0  0  0
 49 51  1  0  0  0  0
 51 52  2  0  0  0  0
 51 53  1  0  0  0  0
 53 54  2  0  0  0  0
M  CHG  2  21   1  28   1
M  END
$$$$