
 OpenBabel11212020213D

 53 61  0  0  1  0  0  0  0  0999 V2000
    4.8071    3.3298    5.4188 O   0  0  0  0  0  0  0  0  0  0  0  0
    5.3599    2.6400    4.3701 C   0  0  0  0  0  0  0  0  0  0  0  0
    4.7349    2.4910    3.1965 C   0  0  0  0  0  0  0  0  0  0  0  0
    3.4686    3.0163    3.0018 O   0  0  0  0  0  0  0  0  0  0  0  0
    3.2774    3.5694    1.7032 C   0  0  2  0  0  0  0  0  0  0  0  0
    2.0049    4.2335    1.6158 O   0  0  0  0  0  0  0  0  0  0  0  0
    1.8469    5.4186    2.3331 C   0  0  0  0  0  0  0  0  0  0  0  0
    0.6683    6.0772    2.3133 C   0  0  0  0  0  0  0  0  0  0  0  0
    0.4329    7.2625    3.0086 O   0  0  0  0  0  0  0  0  0  0  0  0
    1.4972    7.8912    3.6465 C   0  0  0  0  0  0  0  0  0  0  0  0
    2.7107    7.3223    3.6931 C   0  0  0  0  0  0  0  0  0  0  0  0
    3.0053    5.9827    3.1202 C   0  0  0  0  0  0  0  0  0  0  0  0
    3.8333    8.0833    4.3036 C   0  0  0  0  0  0  0  0  0  0  0  0
    5.0275    7.5912    4.3069 N   0  0  0  0  0  0  0  0  0  0  0  0
    6.0586    8.3401    4.8443 C   0  0  0  0  0  0  0  0  0  0  0  0
    7.1854    7.8643    4.8049 O   0  0  0  0  0  0  0  0  0  0  0  0
    5.8769    9.5852    5.4092 N   0  0  0  0  0  0  0  0  0  0  0  0
    4.6938   10.0937    5.4288 C   0  0  0  0  0  0  0  0  0  0  0  0
    3.5264    9.4095    4.8683 C   0  0  0  0  0  0  0  0  0  0  0  0
    2.2657    9.8836    4.8190 C   0  0  0  0  0  0  0  0  0  0  0  0
    1.2723    9.1251    4.2073 N   0  0  0  0  0  0  0  0  0  0  0  0
    1.8490   11.1948    5.3665 C   0  0  0  0  0  0  0  0  0  0  0  0
    0.5401   11.4017    5.9227 O   0  0  0  0  0  0  0  0  0  0  0  0
    1.6996   11.4066    6.7781 O   0  0  0  0  0  0  0  0  0  0  0  0
   -0.4887    5.5965    1.5457 C   0  0  0  0  0  0  0  0  0  0  0  0
   -1.3228    4.6615    2.1379 C   0  0  0  0  0  0  0  0  0  0  0  0
   -2.3946    4.2022    1.4922 N   0  3  0  0  0  0  0  0  0  0  0  0
   -3.1935    3.3096    2.1026 F   0  0  0  0  0  0  0  0  0  0  0  0
   -2.7134    4.5977    0.2704 N   0  0  0  0  0  0  0  0  0  0  0  0
   -1.9428    5.4920   -0.3665 C   0  0  0  0  0  0  0  0  0  0  0  0
   -0.7923    6.0305    0.2429 C   0  0  0  0  0  0  0  0  0  0  0  0
   -0.0111    6.9718   -0.4707 C   0  0  0  0  0  0  0  0  0  0  0  0
   -0.3827    7.3937   -1.7483 C   0  0  0  0  0  0  0  0  0  0  0  0
    0.4458    8.3558   -2.4797 C   0  0  0  0  0  0  0  0  0  0  0  0
    1.5620    8.6483   -2.0818 O   0  0  0  0  0  0  0  0  0  0  0  0
   -0.1536    9.0014   -3.7070 C   0  0  0  0  0  0  0  0  0  0  0  0
    0.4039    9.9427   -4.2542 O   0  0  0  0  0  0  0  0  0  0  0  0
   -1.5409    8.5266   -4.0778 C   0  0  1  0  0  0  0  0  0  0  0  0
   -1.9254    7.2315   -3.6030 O   0  0  0  0  0  0  0  0  0  0  0  0
   -1.5253    6.8921   -2.3386 C   0  0  0  0  0  0  0  0  0  0  0  0
   -2.2842    5.9055   -1.6710 C   0  0  0  0  0  0  0  0  0  0  0  0
   -3.5179    5.5087   -2.2456 N   0  0  0  0  0  0  0  0  0  0  0  0
   -2.6032    9.5329   -3.7418 C   0  0  1  0  0  0  0  0  0  0  0  0
   -3.9670    9.1263   -4.0167 O   0  0  0  0  0  0  0  0  0  0  0  0
   -2.3996   10.2375   -2.5191 O   0  0  0  0  0  0  0  0  0  0  0  0
   -2.3986   10.9874   -3.6536 C   0  0  0  0  0  0  0  0  0  0  0  0
   -3.1375   11.8828   -3.9652 O   0  0  0  0  0  0  0  0  0  0  0  0
    3.3394    2.4346    0.7015 C   0  0  0  0  0  0  0  0  0  0  0  0
    2.4765    2.1563   -0.1183 O   0  0  0  0  0  0  0  0  0  0  0  0
    4.6308    1.6585    0.8141 C   0  0  0  0  0  0  0  0  0  0  0  0
    5.0502    1.0358   -0.1472 O   0  0  0  0  0  0  0  0  0  0  0  0
    5.4140    1.7165    2.1169 C   0  0  0  0  0  0  0  0  0  0  0  0
    6.5045    1.1859    2.2392 O   0  0  0  0  0  0  0  0  0  0  0  0
  1  2  1  0  0  0  0
  2  3  2  0  0  0  0
  3  4  1  0  0  0  0
  3 52  1  0  0  0  0
  4  5  1  0  0  0  0
  5  6  1  1  0  0  0
  5 48  1  0  0  0  0
  6  7  1  0  0  0  0
  7  8  2  0  0  0  0
  7 12  1  0  0  0  0
  8  9  1  0  0  0  0
  8 25  1  0  0  0  0
  9 10  1  0  0  0  0
 10 11  2  0  0  0  0
 10 21  1  0  0  0  0
 11 12  1  0  0  0  0
 11 13  1  0  0  0  0
 13 14  2  0  0  0  0
 13 19  1  0  0  0  0
 14 15  1  0  0  0  0
 15 16  2  0  0  0  0
 15 17  1  0  0  0  0
 17 18  2  0  0  0  0
 18 19  1  0  0  0  0
 19 20  2  0  0  0  0
 20 21  1  0  0  0  0
 20 22  1  0  0  0  0
 22 23  1  0  0  0  0
 22 24  1  0  0  0  0
 23 24  1  0  0  0  0
 25 26  2  0  0  0  0
 25 31  1  0  0  0  0
 26 27  1  0  0  0  0
 27 28  1  0  0  0  0
 27 29  2  0  0  0  0
 29 30  1  0  0  0  0
 30 31  2  0  0  0  0
 30 41  1  0  0  0  0
 31 32  1  0  0  0  0
 32 33  2  0  0  0  0
 33 34  1  0  0  0  0
 33 40  1  0  0  0  0
 34 35  2  0  0  0  0
 34 36  1  0  0  0  0
 36 37  2  0  0  0  0
 38 36  1  1  0  0  0
 38 39  1  0  0  0  0
 38 43  1  0  0  0  0
 39 40  1  0  0  0  0
 40 41  2  0  0  0  0
 41 42  1  0  0  0  0
 43 44  1  6  0  0  0
 43 45  1  0  0  0  0
 43 46  1  0  0  0  0
 45 46  1  0  0  0  0
 46 47  2  0  0  0  0
 48 49  2  0  0  0  0
 48 50  1  0  0  0  0
 50 51  2  0  0  0  0
 50 52  1  0  0  0  0
 52 53  2  0  0  0  0
M  CHG  1  27   1
M  END
$$$$