
 OpenBabel11222021563D

 54 63  0  0  1  0  0  0  0  0999 V2000
    5.1210  -15.1087  -14.5732 O   0  0  0  0  0  0  0  0  0  0  0  0
    3.8065  -14.7679  -14.7620 C   0  0  0  0  0  0  0  0  0  0  0  0
    3.1738  -13.8513  -14.0189 C   0  0  0  0  0  0  0  0  0  0  0  0
    3.8270  -13.2136  -12.9721 O   0  0  0  0  0  0  0  0  0  0  0  0
    3.3748  -11.8985  -12.7000 C   0  0  2  0  0  0  0  0  0  0  0  0
    4.1117  -11.3084  -11.6018 O   0  0  0  0  0  0  0  0  0  0  0  0
    5.2486  -10.5670  -11.9127 C   0  0  0  0  0  0  0  0  0  0  0  0
    5.6951   -9.5680  -11.1115 C   0  0  0  0  0  0  0  0  0  0  0  0
    6.8531   -8.8354  -11.4324 O   0  0  0  0  0  0  0  0  0  0  0  0
    7.6475   -9.1864  -12.5251 C   0  0  0  0  0  0  0  0  0  0  0  0
    7.2593  -10.1586  -13.3651 C   0  0  0  0  0  0  0  0  0  0  0  0
    6.0271  -10.9685  -13.1394 C   0  0  0  0  0  0  0  0  0  0  0  0
    8.0611  -10.5503  -14.5688 C   0  0  3  0  0  0  0  0  0  0  0  0
    7.2598  -10.3685  -15.7226 O   0  0  0  0  0  0  0  0  0  0  0  0
    7.8348  -10.8234  -16.8731 C   0  0  0  0  0  0  0  0  0  0  0  0
    7.1745  -11.1255  -17.8511 O   0  0  0  0  0  0  0  0  0  0  0  0
    9.1840  -10.9601  -16.8017 O   0  0  0  0  0  0  0  0  0  0  0  0
    9.9010   -9.9823  -16.0566 C   0  0  3  0  0  0  0  0  0  0  0  0
    9.2422   -9.6826  -14.7515 C   0  0  0  0  0  0  0  0  0  0  0  0
    9.6134   -8.7491  -13.8457 C   0  0  0  0  0  0  0  0  0  0  0  0
    8.8445   -8.5226  -12.7101 O   0  3  0  0  0  0  0  0  0  0  0  0
   10.8031   -7.8822  -14.0012 C   0  0  0  0  0  0  0  0  0  0  0  0
   10.7016   -6.6102  -14.6519 O   0  0  0  0  0  0  0  0  0  0  0  0
   10.9196   -6.6737  -13.2293 O   0  0  0  0  0  0  0  0  0  0  0  0
   11.1648  -10.5122  -15.7154 O   0  0  0  0  0  0  0  0  0  0  0  0
    5.0247   -9.1465   -9.8306 C   0  0  0  0  0  0  0  0  0  0  0  0
    3.6341   -9.2277   -9.7261 C   0  0  0  0  0  0  0  0  0  0  0  0
    2.9894   -8.8551   -8.6178 N   0  3  0  0  0  0  0  0  0  0  0  0
    1.6464   -8.9588   -8.5800 F   0  0  0  0  0  0  0  0  0  0  0  0
    3.6139   -8.3653   -7.5660 N   0  0  0  0  0  0  0  0  0  0  0  0
    4.9419   -8.2331   -7.5841 C   0  0  0  0  0  0  0  0  0  0  0  0
    5.7135   -8.6179   -8.7034 C   0  0  0  0  0  0  0  0  0  0  0  0
    7.1163   -8.4332   -8.6193 C   0  0  0  0  0  0  0  0  0  0  0  0
    7.7186   -7.8262   -7.5149 C   0  0  0  0  0  0  0  0  0  0  0  0
    6.9628   -7.4893   -6.4053 C   0  0  0  0  0  0  0  0  0  0  0  0
    5.5849   -7.6935   -6.4621 C   0  0  0  0  0  0  0  0  0  0  0  0
    4.8388   -7.3419   -5.4037 F   0  0  0  0  0  0  0  0  0  0  0  0
    7.5103   -6.9640   -5.2558 O   0  0  0  0  0  0  0  0  0  0  0  0
    8.9562   -7.0842   -5.1924 C   0  0  1  0  0  0  0  0  0  0  0  0
    9.6496   -6.6384   -6.4151 C   0  0  0  0  0  0  0  0  0  0  0  0
   10.3249   -5.6383   -6.5653 O   0  0  0  0  0  0  0  0  0  0  0  0
    9.1496   -7.4756   -7.5759 C   0  0  0  0  0  0  0  0  0  0  0  0
    9.8343   -7.7889   -8.5370 O   0  0  0  0  0  0  0  0  0  0  0  0
    9.5786   -6.8893   -3.9258 N   0  0  0  0  0  0  0  0  0  0  0  0
    9.5631   -8.2665   -4.5074 C   0  0  1  0  0  0  0  0  0  0  0  0
    8.4573   -9.1303   -4.0904 O   0  0  0  0  0  0  0  0  0  0  0  0
    9.5903   -9.2245   -3.4308 C   0  0  0  0  0  0  0  0  0  0  0  0
   10.2987  -10.1996   -3.2323 O   0  0  0  0  0  0  0  0  0  0  0  0
    1.8915  -11.8895  -12.3874 C   0  0  0  0  0  0  0  0  0  0  0  0
    1.3751  -11.3654  -11.4101 O   0  0  0  0  0  0  0  0  0  0  0  0
    1.1030  -12.4798  -13.5273 C   0  0  0  0  0  0  0  0  0  0  0  0
    0.0420  -11.9682  -13.8419 O   0  0  0  0  0  0  0  0  0  0  0  0
    1.7447  -13.5695  -14.3636 C   0  0  0  0  0  0  0  0  0  0  0  0
    1.1397  -14.1166  -15.2685 O   0  0  0  0  0  0  0  0  0  0  0  0
  1  2  1  0  0  0  0
  2  3  2  0  0  0  0
  3  4  1  0  0  0  0
  3 53  1  0  0  0  0
  4  5  1  0  0  0  0
  5  6  1  1  0  0  0
  5 49  1  0  0  0  0
  6  7  1  0  0  0  0
  7  8  2  0  0  0  0
  7 12  1  0  0  0  0
  8  9  1  0  0  0  0
  8 26  1  0  0  0  0
  9 10  1  0  0  0  0
 10 11  2  0  0  0  0
 10 21  1  0  0  0  0
 11 12  1  0  0  0  0
 11 13  1  0  0  0  0
 13 14  1  0  0  0  0
 13 19  1  0  0  0  0
 14 15  1  0  0  0  0
 15 16  2  0  0  0  0
 15 17  1  0  0  0  0
 17 18  1  0  0  0  0
 18 19  1  0  0  0  0
 18 25  1  0  0  0  0
 19 20  2  0  0  0  0
 20 21  1  0  0  0  0
 20 22  1  0  0  0  0
 22 23  1  0  0  0  0
 22 24  1  0  0  0  0
 23 24  1  0  0  0  0
 26 27  2  0  0  0  0
 26 32  1  0  0  0  0
 27 28  1  0  0  0  0
 28 29  1  0  0  0  0
 28 30  2  0  0  0  0
 30 31  1  0  0  0  0
 31 32  2  0  0  0  0
 31 36  1  0  0  0  0
 32 33  1  0  0  0  0
 33 34  2  0  0  0  0
 34 35  1  0  0  0  0
 34 42  1  0  0  0  0
 35 36  2  0  0  0  0
 35 38  1  0  0  0  0
 36 37  1  0  0  0  0
 39 38  1  6  0  0  0
 39 40  1  0  0  0  0
 39 44  1  0  0  0  0
 39 45  1  0  0  0  0
 40 41  2  0  0  0  0
 40 42  1  0  0  0  0
 42 43  2  0  0  0  0
 45 44  1  1  0  0  0
 45 46  1  0  0  0  0
 45 47  1  0  0  0  0
 46 47  1  0  0  0  0
 47 48  2  0  0  0  0
 49 50  2  0  0  0  0
 49 51  1  0  0  0  0
 51 52  2  0  0  0  0
 51 53  1  0  0  0  0
 53 54  2  0  0  0  0
M  CHG  2  21   1  28   1
M  END
$$$$