
 OpenBabel09212009223D

 48 55  0  0  1  0  0  0  0  0999 V2000
    6.5439   -1.4883   -1.3700 O   0  0  0  0  0  0  0  0  0  0  0  0
    5.4342   -2.2961   -1.7432 C   0  0  0  0  0  0  0  0  0  0  0  0
    5.0655   -3.2610   -0.6298 C   0  0  2  0  0  0  0  0  0  0  0  0
    3.9854   -4.1016   -1.0399 O   0  0  0  0  0  0  0  0  0  0  0  0
    3.7003   -5.1645   -0.1409 C   0  0  2  0  0  0  0  0  0  0  0  0
    2.2729   -5.5468   -0.2847 N   0  0  0  0  0  0  0  0  0  0  0  0
    1.7830   -6.0614   -1.5140 C   0  0  0  0  0  0  0  0  0  0  0  0
    1.5851   -7.3759   -1.8124 C   0  0  0  0  0  0  0  0  0  0  0  0
    1.1110   -7.8058   -3.0397 O   0  0  0  0  0  0  0  0  0  0  0  0
    0.9091   -6.9228   -4.0637 C   0  0  0  0  0  0  0  0  0  0  0  0
    1.0057   -5.5535   -3.8850 C   0  0  0  0  0  0  0  0  0  0  0  0
    1.3308   -5.0126   -2.5258 C   0  0  0  0  0  0  0  0  0  0  0  0
    0.7881   -4.7558   -5.0159 C   0  0  0  0  0  0  0  0  0  0  0  0
    0.8264   -3.3563   -4.9500 N   0  0  0  0  0  0  0  0  0  0  0  0
    0.5389   -2.5265   -5.9914 C   0  0  0  0  0  0  0  0  0  0  0  0
    0.5399   -1.3072   -5.8585 O   0  0  0  0  0  0  0  0  0  0  0  0
    0.2247   -3.1037   -7.1771 N   0  0  0  0  0  0  0  0  0  0  0  0
    0.4313   -4.4987   -7.4789 C   0  0  0  0  0  0  0  0  0  0  0  0
    0.5403   -5.3396   -6.2563 C   0  0  0  0  0  0  0  0  0  0  0  0
    0.4969   -6.7149   -6.3000 C   0  0  0  0  0  0  0  0  0  0  0  0
    0.6506   -7.5236   -5.2467 N   0  0  0  0  0  0  0  0  0  0  0  0
    0.3387   -7.3797   -7.4711 O   0  0  0  0  0  0  0  0  0  0  0  0
    1.8743   -8.5182   -0.8824 C   0  0  0  0  0  0  0  0  0  0  0  0
    2.9168   -8.2799   -0.0338 N   0  0  0  0  0  0  0  0  0  0  0  0
    3.2179   -9.2168    0.8845 C   0  0  0  0  0  0  0  0  0  0  0  0
    2.5216  -10.3997    1.0270 C   0  0  0  0  0  0  0  0  0  0  0  0
    1.4440  -10.6623    0.1780 C   0  0  0  0  0  0  0  0  0  0  0  0
    1.1040   -9.7304   -0.8355 C   0  0  0  0  0  0  0  0  0  0  0  0
    0.0163  -10.0981   -1.6827 C   0  0  0  0  0  0  0  0  0  0  0  0
   -0.7046  -11.2882   -1.5021 C   0  0  0  0  0  0  0  0  0  0  0  0
   -0.4135  -12.1350   -0.4439 C   0  0  0  0  0  0  0  0  0  0  0  0
    0.6848  -11.8389    0.3629 C   0  0  0  0  0  0  0  0  0  0  0  0
   -1.1305  -13.2543   -0.1122 O   0  0  0  0  0  0  0  0  0  0  0  0
   -2.3596  -13.4825   -0.8264 C   0  0  2  0  0  0  0  0  0  0  0  0
   -2.2869  -13.0771   -2.2739 C   0  0  0  0  0  0  0  0  0  0  0  0
   -2.6010  -13.7735   -3.2265 O   0  0  0  0  0  0  0  0  0  0  0  0
   -1.7612  -11.6753   -2.4515 C   0  0  0  0  0  0  0  0  0  0  0  0
   -2.1902  -10.9434   -3.3257 O   0  0  0  0  0  0  0  0  0  0  0  0
   -3.5356  -12.8058   -0.1571 C   0  0  1  0  0  0  0  0  0  0  0  0
   -3.4635  -11.3820    0.0038 O   0  0  0  0  0  0  0  0  0  0  0  0
   -4.8098  -13.2740   -0.6170 O   0  0  0  0  0  0  0  0  0  0  0  0
   -4.4834  -13.5440    0.7516 C   0  0  0  0  0  0  0  0  0  0  0  0
    4.0376   -4.9529    1.3621 C   0  0  0  0  0  0  0  0  0  0  0  0
    4.0962   -5.8450    2.1975 O   0  0  0  0  0  0  0  0  0  0  0  0
    4.4086   -3.5277    1.7266 C   0  0  0  0  0  0  0  0  0  0  0  0
    4.6902   -3.2043    2.8648 O   0  0  0  0  0  0  0  0  0  0  0  0
    4.5537   -2.5469    0.5988 C   0  0  0  0  0  0  0  0  0  0  0  0
    4.1616   -1.4055    0.7003 O   0  0  0  0  0  0  0  0  0  0  0  0
  1  2  1  0  0  0  0
  3  4  1  0  0  0  0
  3 47  1  0  0  0  0
  3  2  1  6  0  0  0
  4  5  1  0  0  0  0
  5  6  1  1  0  0  0
  5 43  1  0  0  0  0
  6  7  1  0  0  0  0
  7  8  2  0  0  0  0
  7 12  1  0  0  0  0
  8  9  1  0  0  0  0
  8 23  1  0  0  0  0
  9 10  1  0  0  0  0
 10 11  2  0  0  0  0
 10 21  1  0  0  0  0
 11 12  1  0  0  0  0
 11 13  1  0  0  0  0
 13 14  1  0  0  0  0
 13 19  2  0  0  0  0
 14 15  1  0  0  0  0
 15 16  2  0  0  0  0
 15 17  1  0  0  0  0
 17 18  1  0  0  0  0
 18 19  1  0  0  0  0
 19 20  1  0  0  0  0
 20 21  2  0  0  0  0
 20 22  1  0  0  0  0
 23 24  2  0  0  0  0
 23 28  1  0  0  0  0
 24 25  1  0  0  0  0
 25 26  2  0  0  0  0
 26 27  1  0  0  0  0
 27 28  2  0  0  0  0
 27 32  1  0  0  0  0
 28 29  1  0  0  0  0
 29 30  2  0  0  0  0
 30 31  1  0  0  0  0
 30 37  1  0  0  0  0
 31 32  2  0  0  0  0
 31 33  1  0  0  0  0
 34 33  1  1  0  0  0
 34 35  1  0  0  0  0
 34 39  1  0  0  0  0
 35 36  2  0  0  0  0
 35 37  1  0  0  0  0
 37 38  2  0  0  0  0
 39 40  1  1  0  0  0
 39 41  1  0  0  0  0
 39 42  1  0  0  0  0
 41 42  1  0  0  0  0
 43 44  2  0  0  0  0
 43 45  1  0  0  0  0
 45 46  2  0  0  0  0
 45 47  1  0  0  0  0
 47 48  2  0  0  0  0
M  END
$$$$