
 OpenBabel11262000073D

 54 62  0  0  1  0  0  0  0  0999 V2000
    5.4671   -7.6207    4.7080 O   0  0  0  0  0  0  0  0  0  0  0  0
    5.2304   -6.4558    5.3906 C   0  0  0  0  0  0  0  0  0  0  0  0
    4.7806   -5.3369    4.8064 C   0  0  0  0  0  0  0  0  0  0  0  0
    4.5744   -5.2679    3.4443 O   0  0  0  0  0  0  0  0  0  0  0  0
    3.4018   -4.5579    3.0610 C   0  0  2  0  0  0  0  0  0  0  0  0
    3.2560   -4.5316    1.6247 O   0  0  0  0  0  0  0  0  0  0  0  0
    3.1250   -5.7701    0.9975 C   0  0  0  0  0  0  0  0  0  0  0  0
    3.5590   -5.9906   -0.2651 C   0  0  0  0  0  0  0  0  0  0  0  0
    3.5150   -7.2346   -0.8938 O   0  0  0  0  0  0  0  0  0  0  0  0
    2.9548   -8.3061   -0.2229 C   0  0  0  0  0  0  0  0  0  0  0  0
    2.3458   -8.1519    0.9995 C   0  0  0  0  0  0  0  0  0  0  0  0
    2.3970   -6.8599    1.7339 C   0  0  0  0  0  0  0  0  0  0  0  0
    1.7053   -9.2646    1.5253 C   0  0  0  0  0  0  0  0  0  0  0  0
    1.0417   -9.1333    2.7534 O   0  0  0  0  0  0  0  0  0  0  0  0
    0.0208  -10.0190    3.1091 C   0  0  0  0  0  0  0  0  0  0  0  0
   -0.7347   -9.7724    4.0397 O   0  0  0  0  0  0  0  0  0  0  0  0
   -0.1224  -11.1054    2.3135 O   0  0  0  0  0  0  0  0  0  0  0  0
    1.0148  -11.5994    1.6038 C   0  0  3  0  0  0  0  0  0  0  0  0
    1.7243  -10.4956    0.8979 C   0  0  0  0  0  0  0  0  0  0  0  0
    2.4447  -10.6114   -0.2935 C   0  0  0  0  0  0  0  0  0  0  0  0
    3.0188   -9.5010   -0.8571 N   0  0  0  0  0  0  0  0  0  0  0  0
    2.6483  -11.9180   -1.0328 C   0  0  0  0  0  0  0  0  0  0  0  0
    3.8234  -12.6724   -0.6830 O   0  0  0  0  0  0  0  0  0  0  0  0
    2.5187  -13.1712   -0.3450 O   0  0  0  0  0  0  0  0  0  0  0  0
    1.8729  -12.2962    2.4921 O   0  0  0  0  0  0  0  0  0  0  0  0
    4.1187   -4.9183   -1.1209 C   0  0  0  0  0  0  0  0  0  0  0  0
    5.4918   -4.6844   -1.0620 C   0  0  0  0  0  0  0  0  0  0  0  0
    6.0051   -3.6401   -1.7979 C   0  0  0  0  0  0  0  0  0  0  0  0
    7.3241   -3.4076   -1.7473 F   0  0  0  0  0  0  0  0  0  0  0  0
    5.2651   -2.8174   -2.5600 N   0  0  0  0  0  0  0  0  0  0  0  0
    3.9421   -3.0339   -2.6448 C   0  0  0  0  0  0  0  0  0  0  0  0
    3.3072   -4.1020   -1.9665 C   0  0  0  0  0  0  0  0  0  0  0  0
    1.9144   -4.2856   -2.1693 C   0  0  0  0  0  0  0  0  0  0  0  0
    1.1697   -3.4002   -2.9667 C   0  0  0  0  0  0  0  0  0  0  0  0
   -0.2675   -3.5985   -3.1483 C   0  0  0  0  0  0  0  0  0  0  0  0
   -0.8300   -4.6327   -2.8259 O   0  0  0  0  0  0  0  0  0  0  0  0
   -1.0426   -2.4559   -3.7517 C   0  0  0  0  0  0  0  0  0  0  0  0
   -2.2549   -2.3738   -3.5977 O   0  0  0  0  0  0  0  0  0  0  0  0
   -0.2431   -1.5186   -4.6240 C   0  0  1  0  0  0  0  0  0  0  0  0
    1.1443   -1.3725   -4.3260 O   0  0  0  0  0  0  0  0  0  0  0  0
    1.7781   -2.3198   -3.5750 C   0  0  0  0  0  0  0  0  0  0  0  0
    3.1583   -2.1683   -3.4156 C   0  0  0  0  0  0  0  0  0  0  0  0
    3.7491   -1.1256   -4.0278 F   0  0  0  0  0  0  0  0  0  0  0  0
   -0.4818   -1.8393   -6.0816 C   0  0  1  0  0  0  0  0  0  0  0  0
   -1.8388   -1.7169   -6.5696 O   0  0  0  0  0  0  0  0  0  0  0  0
    0.5244   -1.3701   -6.9947 O   0  0  0  0  0  0  0  0  0  0  0  0
    0.4114   -2.6939   -6.8390 C   0  0  0  0  0  0  0  0  0  0  0  0
    1.1968   -3.5473   -6.4694 O   0  0  0  0  0  0  0  0  0  0  0  0
    3.4074   -3.1394    3.6386 C   0  0  0  0  0  0  0  0  0  0  0  0
    3.0837   -2.1494    2.9794 O   0  0  0  0  0  0  0  0  0  0  0  0
    3.6389   -3.0661    5.1296 C   0  0  3  0  0  0  0  0  0  0  0  0
    4.5215   -4.1554    5.6850 C   0  0  0  0  0  0  0  0  0  0  0  0
    4.9455   -4.1279    6.8409 O   0  0  0  0  0  0  0  0  0  0  0  0
    4.0821   -1.8302    5.5115 F   0  0  0  0  0  0  0  0  0  0  0  0
  1  2  1  0  0  0  0
  2  3  2  0  0  0  0
  3  4  1  0  0  0  0
  3 52  1  0  0  0  0
  4  5  1  0  0  0  0
  5  6  1  6  0  0  0
  5 49  1  0  0  0  0
  6  7  1  0  0  0  0
  7  8  2  0  0  0  0
  7 12  1  0  0  0  0
  8  9  1  0  0  0  0
  8 26  1  0  0  0  0
  9 10  1  0  0  0  0
 10 11  2  0  0  0  0
 10 21  1  0  0  0  0
 11 12  1  0  0  0  0
 11 13  1  0  0  0  0
 13 14  1  0  0  0  0
 13 19  2  0  0  0  0
 14 15  1  0  0  0  0
 15 16  2  0  0  0  0
 15 17  1  0  0  0  0
 17 18  1  0  0  0  0
 18 19  1  0  0  0  0
 18 25  1  0  0  0  0
 19 20  1  0  0  0  0
 20 21  2  0  0  0  0
 20 22  1  0  0  0  0
 22 23  1  0  0  0  0
 22 24  1  0  0  0  0
 23 24  1  0  0  0  0
 26 27  2  0  0  0  0
 26 32  1  0  0  0  0
 27 28  1  0  0  0  0
 28 29  1  0  0  0  0
 28 30  2  0  0  0  0
 30 31  1  0  0  0  0
 31 32  2  0  0  0  0
 31 42  1  0  0  0  0
 32 33  1  0  0  0  0
 33 34  2  0  0  0  0
 34 35  1  0  0  0  0
 34 41  1  0  0  0  0
 35 36  2  0  0  0  0
 35 37  1  0  0  0  0
 37 38  2  0  0  0  0
 39 37  1  1  0  0  0
 39 40  1  0  0  0  0
 39 44  1  0  0  0  0
 40 41  1  0  0  0  0
 41 42  2  0  0  0  0
 42 43  1  0  0  0  0
 44 45  1  6  0  0  0
 44 46  1  0  0  0  0
 44 47  1  0  0  0  0
 46 47  1  0  0  0  0
 47 48  2  0  0  0  0
 49 50  2  0  0  0  0
 49 51  1  0  0  0  0
 51 52  1  0  0  0  0
 51 54  1  0  0  0  0
 52 53  2  0  0  0  0
M  END
$$$$