
 OpenBabel10262010393D

 51 58  0  0  1  0  0  0  0  0999 V2000
    3.6239    5.4342    6.6933 O   0  0  0  0  0  0  0  0  0  0  0  0
    3.1182    5.7354    5.4534 C   0  0  0  0  0  0  0  0  0  0  0  0
    2.9523    4.8356    4.4721 C   0  0  0  0  0  0  0  0  0  0  0  0
    3.3368    3.5144    4.6075 O   0  0  0  0  0  0  0  0  0  0  0  0
    2.4294    2.5452    4.0550 C   0  0  2  0  0  0  0  0  0  0  0  0
    2.8041    1.1853    4.3409 O   0  0  0  0  0  0  0  0  0  0  0  0
    2.7783    0.7997    5.6795 C   0  0  0  0  0  0  0  0  0  0  0  0
    2.6364   -0.4898    6.0656 C   0  0  0  0  0  0  0  0  0  0  0  0
    2.7279   -0.8980    7.4014 O   0  0  0  0  0  0  0  0  0  0  0  0
    2.9703    0.0442    8.3894 C   0  0  0  0  0  0  0  0  0  0  0  0
    3.0502    1.3517    8.1097 C   0  0  0  0  0  0  0  0  0  0  0  0
    2.9651    1.8671    6.7241 C   0  0  0  0  0  0  0  0  0  0  0  0
    3.3313    2.3760    9.1658 C   0  0  3  0  0  0  0  0  0  0  0  0
    2.2244    3.2620    9.2407 O   0  0  0  0  0  0  0  0  0  0  0  0
    2.4152    4.3392   10.0435 C   0  0  0  0  0  0  0  0  0  0  0  0
    1.7932    5.3806    9.8913 O   0  0  0  0  0  0  0  0  0  0  0  0
    3.3863    4.1948   10.9843 O   0  0  0  0  0  0  0  0  0  0  0  0
    3.7208    2.8936   11.5214 C   0  0  0  0  0  0  0  0  0  0  0  0
    3.5242    1.8071   10.5221 C   0  0  0  0  0  0  0  0  0  0  0  0
    3.4819    0.4717   10.7245 C   0  0  0  0  0  0  0  0  0  0  0  0
    3.1560   -0.4010    9.6824 N   0  0  0  0  0  0  0  0  0  0  0  0
    3.8041   -0.0761   12.0819 C   0  0  0  0  0  0  0  0  0  0  0  0
    4.4266    0.5264   12.9396 O   0  0  0  0  0  0  0  0  0  0  0  0
    3.3592   -1.3409   12.2366 O   0  0  0  0  0  0  0  0  0  0  0  0
    2.3528   -1.6140    5.1513 C   0  0  0  0  0  0  0  0  0  0  0  0
    3.4482   -2.2311    4.6596 N   0  0  0  0  0  0  0  0  0  0  0  0
    3.2217   -3.3047    3.8975 C   0  0  0  0  0  0  0  0  0  0  0  0
    2.0229   -3.8231    3.5999 N   0  0  0  0  0  0  0  0  0  0  0  0
    0.9514   -3.2063    4.0991 C   0  0  0  0  0  0  0  0  0  0  0  0
    1.0370   -2.0656    4.9100 C   0  0  0  0  0  0  0  0  0  0  0  0
   -0.1642   -1.4931    5.4129 C   0  0  0  0  0  0  0  0  0  0  0  0
   -1.4110   -2.0508    5.0949 C   0  0  0  0  0  0  0  0  0  0  0  0
   -1.4823   -3.1757    4.2931 C   0  0  0  0  0  0  0  0  0  0  0  0
   -0.3008   -3.7358    3.8045 C   0  0  0  0  0  0  0  0  0  0  0  0
   -2.6317   -3.7952    3.9061 O   0  0  0  0  0  0  0  0  0  0  0  0
   -3.8390   -3.4727    4.6023 C   0  0  2  0  0  0  0  0  0  0  0  0
   -3.9503   -2.0546    5.1249 C   0  0  0  0  0  0  0  0  0  0  0  0
   -4.9928   -1.4210    5.2074 O   0  0  0  0  0  0  0  0  0  0  0  0
   -2.6492   -1.4377    5.5825 C   0  0  0  0  0  0  0  0  0  0  0  0
   -2.6302   -0.4648    6.3185 O   0  0  0  0  0  0  0  0  0  0  0  0
   -4.1407   -4.4903    5.6622 C   0  0  1  0  0  0  0  0  0  0  0  0
   -5.3589   -4.2911    6.4130 O   0  0  0  0  0  0  0  0  0  0  0  0
   -3.9069   -5.8565    5.2553 O   0  0  0  0  0  0  0  0  0  0  0  0
   -3.1609   -5.3756    6.2758 C   0  0  0  0  0  0  0  0  0  0  0  0
   -3.0521   -5.7484    7.4106 O   0  0  0  0  0  0  0  0  0  0  0  0
    2.3641    2.7954    2.5611 C   0  0  0  0  0  0  0  0  0  0  0  0
    2.5969    2.0079    1.6587 O   0  0  0  0  0  0  0  0  0  0  0  0
    1.9166    4.2026    2.2750 C   0  0  0  0  0  0  0  0  0  0  0  0
    1.0807    4.4098    1.4097 O   0  0  0  0  0  0  0  0  0  0  0  0
    2.3858    5.3195    3.1835 C   0  0  0  0  0  0  0  0  0  0  0  0
    2.2739    6.4946    2.8785 O   0  0  0  0  0  0  0  0  0  0  0  0
  1  2  1  0  0  0  0
  2  3  2  0  0  0  0
  3  4  1  0  0  0  0
  3 50  1  0  0  0  0
  4  5  1  0  0  0  0
  5  6  1  6  0  0  0
  5 46  1  0  0  0  0
  6  7  1  0  0  0  0
  7  8  2  0  0  0  0
  7 12  1  0  0  0  0
  8  9  1  0  0  0  0
  8 25  1  0  0  0  0
  9 10  1  0  0  0  0
 10 11  2  0  0  0  0
 10 21  1  0  0  0  0
 11 12  1  0  0  0  0
 11 13  1  0  0  0  0
 13 14  1  0  0  0  0
 13 19  1  0  0  0  0
 14 15  1  0  0  0  0
 15 16  2  0  0  0  0
 15 17  1  0  0  0  0
 17 18  1  0  0  0  0
 18 19  1  0  0  0  0
 19 20  2  0  0  0  0
 20 21  1  0  0  0  0
 20 22  1  0  0  0  0
 22 23  2  0  0  0  0
 22 24  1  0  0  0  0
 25 26  2  0  0  0  0
 25 30  1  0  0  0  0
 26 27  1  0  0  0  0
 27 28  2  0  0  0  0
 28 29  1  0  0  0  0
 29 30  2  0  0  0  0
 29 34  1  0  0  0  0
 30 31  1  0  0  0  0
 31 32  2  0  0  0  0
 32 33  1  0  0  0  0
 32 39  1  0  0  0  0
 33 34  2  0  0  0  0
 33 35  1  0  0  0  0
 36 35  1  1  0  0  0
 36 37  1  0  0  0  0
 36 41  1  0  0  0  0
 37 38  2  0  0  0  0
 37 39  1  0  0  0  0
 39 40  2  0  0  0  0
 41 42  1  1  0  0  0
 41 43  1  0  0  0  0
 41 44  1  0  0  0  0
 43 44  1  0  0  0  0
 44 45  2  0  0  0  0
 46 47  2  0  0  0  0
 46 48  1  0  0  0  0
 48 49  2  0  0  0  0
 48 50  1  0  0  0  0
 50 51  2  0  0  0  0
M  END
$$$$