
 OpenBabel11222018093D

 55 63  0  0  1  0  0  0  0  0999 V2000
   -1.9882    4.1143   -0.7410 O   0  0  0  0  0  0  0  0  0  0  0  0
   -1.7946    3.5030   -1.9545 C   0  0  0  0  0  0  0  0  0  0  0  0
   -0.5783    3.3393   -2.4885 C   0  0  0  0  0  0  0  0  0  0  0  0
    0.5303    3.8109   -1.8187 O   0  0  0  0  0  0  0  0  0  0  0  0
    1.7947    3.2967   -2.1922 C   0  0  2  0  0  0  0  0  0  0  0  0
    2.8628    3.9671   -1.4681 O   0  0  0  0  0  0  0  0  0  0  0  0
    3.0259    5.3421   -1.6246 C   0  0  0  0  0  0  0  0  0  0  0  0
    4.2397    5.9139   -1.4692 C   0  0  0  0  0  0  0  0  0  0  0  0
    4.4512    7.2960   -1.5691 O   0  0  0  0  0  0  0  0  0  0  0  0
    3.3577    8.1532   -1.7631 C   0  0  0  0  0  0  0  0  0  0  0  0
    2.1105    7.6670   -1.8868 C   0  0  0  0  0  0  0  0  0  0  0  0
    1.8135    6.2010   -1.8837 C   0  0  0  0  0  0  0  0  0  0  0  0
    0.9104    8.5536   -2.0607 C   0  0  3  0  0  0  0  0  0  0  0  0
    0.0802    8.3605   -0.9301 O   0  0  0  0  0  0  0  0  0  0  0  0
   -1.0799    9.0689   -0.8973 C   0  0  0  0  0  0  0  0  0  0  0  0
   -2.0006    8.7538   -0.1628 O   0  0  0  0  0  0  0  0  0  0  0  0
   -1.1364   10.1279   -1.7405 O   0  0  0  0  0  0  0  0  0  0  0  0
    0.0359   10.8049   -2.1845 C   0  0  3  0  0  0  0  0  0  0  0  0
    1.2715    9.9846   -2.0530 C   0  0  0  0  0  0  0  0  0  0  0  0
    2.5458   10.4201   -1.9360 C   0  0  0  0  0  0  0  0  0  0  0  0
    3.5922    9.5119   -1.8132 O   0  3  0  0  0  0  0  0  0  0  0  0
    2.9219   11.8528   -1.9085 C   0  0  0  0  0  0  0  0  0  0  0  0
    2.9945   12.5698   -0.6693 O   0  0  0  0  0  0  0  0  0  0  0  0
    4.2018   12.2568   -1.3900 O   0  0  0  0  0  0  0  0  0  0  0  0
   -0.0823   11.0381   -3.5746 O   0  0  0  0  0  0  0  0  0  0  0  0
    5.4411    5.1242   -1.1014 C   0  0  0  0  0  0  0  0  0  0  0  0
    5.7113    4.9523    0.2549 C   0  0  0  0  0  0  0  0  0  0  0  0
    6.7742    4.2473    0.6585 N   0  3  0  0  0  0  0  0  0  0  0  0
    7.0231    4.1300    1.9774 F   0  0  0  0  0  0  0  0  0  0  0  0
    7.6066    3.6724   -0.1865 N   0  0  0  0  0  0  0  0  0  0  0  0
    7.3973    3.7759   -1.5023 C   0  0  0  0  0  0  0  0  0  0  0  0
    6.3121    4.5054   -2.0274 C   0  0  0  0  0  0  0  0  0  0  0  0
    6.1722    4.5677   -3.4342 C   0  0  0  0  0  0  0  0  0  0  0  0
    7.0884    3.9265   -4.2877 C   0  0  0  0  0  0  0  0  0  0  0  0
    6.9431    4.0338   -5.7392 C   0  0  0  0  0  0  0  0  0  0  0  0
    6.0174    4.6527   -6.2346 O   0  0  0  0  0  0  0  0  0  0  0  0
    8.0377    3.4223   -6.5766 C   0  0  0  0  0  0  0  0  0  0  0  0
    8.3078    3.9083   -7.6640 O   0  0  0  0  0  0  0  0  0  0  0  0
    8.7784    2.2778   -5.9258 C   0  0  1  0  0  0  0  0  0  0  0  0
    9.0602    2.5174   -4.5228 O   0  0  0  0  0  0  0  0  0  0  0  0
    8.1465    3.2026   -3.7722 C   0  0  0  0  0  0  0  0  0  0  0  0
    8.2832    3.1473   -2.3829 C   0  0  0  0  0  0  0  0  0  0  0  0
    9.3080    2.4509   -1.8636 F   0  0  0  0  0  0  0  0  0  0  0  0
    8.1331    0.9186   -6.1756 C   0  0  1  0  0  0  0  0  0  0  0  0
    8.0056    0.3669   -7.5003 N   0  0  0  0  0  0  0  0  0  0  0  0
    8.3223    1.1402   -8.4063 O   0  0  0  0  0  0  0  0  0  0  0  0
    8.4654   -0.0791   -5.1731 O   0  0  0  0  0  0  0  0  0  0  0  0
    7.2101    0.3621   -5.1980 C   0  0  0  0  0  0  0  0  0  0  0  0
    6.5169    0.8789   -4.3373 O   0  0  0  0  0  0  0  0  0  0  0  0
    2.0551    3.2907   -3.6920 C   0  0  0  0  0  0  0  0  0  0  0  0
    3.1056    3.6334   -4.2177 O   0  0  0  0  0  0  0  0  0  0  0  0
    0.8663    2.8369   -4.4987 C   0  0  0  0  0  0  0  0  0  0  0  0
    1.0014    2.6162   -5.6908 O   0  0  0  0  0  0  0  0  0  0  0  0
   -0.4872    2.7063   -3.8330 C   0  0  0  0  0  0  0  0  0  0  0  0
   -1.4142    2.1355   -4.3796 O   0  0  0  0  0  0  0  0  0  0  0  0
  1  2  1  0  0  0  0
  2  3  2  0  0  0  0
  3  4  1  0  0  0  0
  3 54  1  0  0  0  0
  4  5  1  0  0  0  0
  5  6  1  1  0  0  0
  5 50  1  0  0  0  0
  6  7  1  0  0  0  0
  7  8  2  0  0  0  0
  7 12  1  0  0  0  0
  8  9  1  0  0  0  0
  8 26  1  0  0  0  0
  9 10  1  0  0  0  0
 10 11  2  0  0  0  0
 10 21  1  0  0  0  0
 11 12  1  0  0  0  0
 11 13  1  0  0  0  0
 13 14  1  0  0  0  0
 13 19  1  0  0  0  0
 14 15  1  0  0  0  0
 15 16  2  0  0  0  0
 15 17  1  0  0  0  0
 17 18  1  0  0  0  0
 18 19  1  0  0  0  0
 18 25  1  0  0  0  0
 19 20  2  0  0  0  0
 20 21  1  0  0  0  0
 20 22  1  0  0  0  0
 22 23  1  0  0  0  0
 22 24  1  0  0  0  0
 23 24  1  0  0  0  0
 26 27  2  0  0  0  0
 26 32  1  0  0  0  0
 27 28  1  0  0  0  0
 28 29  1  0  0  0  0
 28 30  2  0  0  0  0
 30 31  1  0  0  0  0
 31 32  2  0  0  0  0
 31 42  1  0  0  0  0
 32 33  1  0  0  0  0
 33 34  2  0  0  0  0
 34 35  1  0  0  0  0
 34 41  1  0  0  0  0
 35 36  2  0  0  0  0
 35 37  1  0  0  0  0
 37 38  2  0  0  0  0
 39 37  1  1  0  0  0
 39 40  1  0  0  0  0
 39 44  1  0  0  0  0
 40 41  1  0  0  0  0
 41 42  2  0  0  0  0
 42 43  1  0  0  0  0
 44 45  1  6  0  0  0
 44 47  1  0  0  0  0
 44 48  1  0  0  0  0
 45 46  2  0  0  0  0
 47 48  1  0  0  0  0
 48 49  2  0  0  0  0
 50 51  2  0  0  0  0
 50 52  1  0  0  0  0
 52 53  2  0  0  0  0
 52 54  1  0  0  0  0
 54 55  2  0  0  0  0
M  CHG  2  21   1  28   1
M  END
$$$$