
 OpenBabel09212011363D

 50 57  0  0  1  0  0  0  0  0999 V2000
    4.4592   -5.2037    3.6857 O   0  0  0  0  0  0  0  0  0  0  0  0
    4.9990   -5.6446    2.4398 C   0  0  0  0  0  0  0  0  0  0  0  0
    4.9005   -4.5107    1.4161 C   0  0  2  0  0  0  0  0  0  0  0  0
    5.6963   -3.4111    1.8506 O   0  0  0  0  0  0  0  0  0  0  0  0
    5.3582   -2.1701    1.2349 C   0  0  2  0  0  0  0  0  0  0  0  0
    6.3363   -1.1838    1.5550 O   0  0  0  0  0  0  0  0  0  0  0  0
    7.4228   -1.0648    0.6969 C   0  0  0  0  0  0  0  0  0  0  0  0
    8.0743    0.1076    0.5651 C   0  0  0  0  0  0  0  0  0  0  0  0
    9.1950    0.2920   -0.2256 O   0  0  0  0  0  0  0  0  0  0  0  0
    9.7855   -0.8035   -0.8096 C   0  0  0  0  0  0  0  0  0  0  0  0
    9.2297   -2.0708   -0.7335 C   0  0  0  0  0  0  0  0  0  0  0  0
    7.9337   -2.2844   -0.0156 C   0  0  0  0  0  0  0  0  0  0  0  0
    9.9400   -3.1125   -1.3360 C   0  0  0  0  0  0  0  0  0  0  0  0
    9.4422   -4.4228   -1.3199 N   0  0  0  0  0  0  0  0  0  0  0  0
   10.1451   -5.5189   -1.7082 C   0  0  0  0  0  0  0  0  0  0  0  0
    9.6753   -6.6462   -1.6024 O   0  0  0  0  0  0  0  0  0  0  0  0
   11.3995   -5.3084   -2.1738 N   0  0  0  0  0  0  0  0  0  0  0  0
   11.8918   -4.0188   -2.5858 C   0  0  0  0  0  0  0  0  0  0  0  0
   11.1668   -2.8766   -1.9576 C   0  0  0  0  0  0  0  0  0  0  0  0
   11.6097   -1.5636   -1.9932 C   0  0  0  0  0  0  0  0  0  0  0  0
   10.9489   -0.5369   -1.4350 N   0  0  0  0  0  0  0  0  0  0  0  0
   12.7658   -1.1827   -2.6037 O   0  0  0  0  0  0  0  0  0  0  0  0
    7.6725    1.3234    1.2914 C   0  0  0  0  0  0  0  0  0  0  0  0
    6.6946    2.0431    0.6841 N   0  0  0  0  0  0  0  0  0  0  0  0
    6.2707    3.1547    1.3150 C   0  0  0  0  0  0  0  0  0  0  0  0
    6.7693    3.5910    2.5303 C   0  0  0  0  0  0  0  0  0  0  0  0
    7.7792    2.8518    3.1528 C   0  0  0  0  0  0  0  0  0  0  0  0
    8.2706    1.6865    2.5226 C   0  0  0  0  0  0  0  0  0  0  0  0
    9.3140    0.9719    3.1588 C   0  0  0  0  0  0  0  0  0  0  0  0
    9.8206    1.3918    4.3928 C   0  0  0  0  0  0  0  0  0  0  0  0
    9.2954    2.5099    5.0304 C   0  0  0  0  0  0  0  0  0  0  0  0
    8.2974    3.2509    4.3983 C   0  0  0  0  0  0  0  0  0  0  0  0
    9.6777    2.9526    6.2666 O   0  0  0  0  0  0  0  0  0  0  0  0
   10.3908    2.0192    7.0880 C   0  0  2  0  0  0  0  0  0  0  0  0
   11.4174    1.2135    6.3373 C   0  0  0  0  0  0  0  0  0  0  0  0
   12.5483    0.9790    6.7485 O   0  0  0  0  0  0  0  0  0  0  0  0
   10.9066    0.6442    5.0395 C   0  0  0  0  0  0  0  0  0  0  0  0
   11.3603   -0.3971    4.5881 O   0  0  0  0  0  0  0  0  0  0  0  0
    9.4368    1.1356    7.8489 C   0  0  0  0  0  0  0  0  0  0  0  0
    8.5209    0.3516    7.0104 O   0  0  0  0  0  0  0  0  0  0  0  0
    9.8515    0.4072    9.0530 C   0  0  0  0  0  0  0  0  0  0  0  0
    9.5814   -0.7558    9.2750 O   0  0  0  0  0  0  0  0  0  0  0  0
    8.8934    1.5896    9.1180 C   0  0  0  0  0  0  0  0  0  0  0  0
    9.1071    2.6394    9.6821 O   0  0  0  0  0  0  0  0  0  0  0  0
    3.9779   -1.7307    1.7085 C   0  0  0  0  0  0  0  0  0  0  0  0
    3.6346   -0.5934    2.0008 O   0  0  0  0  0  0  0  0  0  0  0  0
    2.9756   -2.8604    1.6645 C   0  0  0  0  0  0  0  0  0  0  0  0
    1.7978   -2.6651    1.9245 O   0  0  0  0  0  0  0  0  0  0  0  0
    3.4287   -4.2225    1.1916 C   0  0  0  0  0  0  0  0  0  0  0  0
    2.6706   -4.9786    0.6004 O   0  0  0  0  0  0  0  0  0  0  0  0
  1  2  1  0  0  0  0
  3  4  1  0  0  0  0
  3 49  1  0  0  0  0
  3  2  1  1  0  0  0
  4  5  1  0  0  0  0
  5  6  1  1  0  0  0
  5 45  1  0  0  0  0
  6  7  1  0  0  0  0
  7  8  2  0  0  0  0
  7 12  1  0  0  0  0
  8  9  1  0  0  0  0
  8 23  1  0  0  0  0
  9 10  1  0  0  0  0
 10 11  2  0  0  0  0
 10 21  1  0  0  0  0
 11 12  1  0  0  0  0
 11 13  1  0  0  0  0
 13 14  1  0  0  0  0
 13 19  2  0  0  0  0
 14 15  1  0  0  0  0
 15 16  2  0  0  0  0
 15 17  1  0  0  0  0
 17 18  1  0  0  0  0
 18 19  1  0  0  0  0
 19 20  1  0  0  0  0
 20 21  2  0  0  0  0
 20 22  1  0  0  0  0
 23 24  2  0  0  0  0
 23 28  1  0  0  0  0
 24 25  1  0  0  0  0
 25 26  2  0  0  0  0
 26 27  1  0  0  0  0
 27 28  2  0  0  0  0
 27 32  1  0  0  0  0
 28 29  1  0  0  0  0
 29 30  2  0  0  0  0
 30 31  1  0  0  0  0
 30 37  1  0  0  0  0
 31 32  2  0  0  0  0
 31 33  1  0  0  0  0
 33 34  1  0  0  0  0
 34 35  1  0  0  0  0
 34 39  1  6  0  0  0
 35 36  2  0  0  0  0
 35 37  1  0  0  0  0
 37 38  2  0  0  0  0
 39 40  1  0  0  0  0
 39 41  1  0  0  0  0
 39 43  1  0  0  0  0
 41 42  2  0  0  0  0
 41 43  1  0  0  0  0
 43 44  2  0  0  0  0
 45 46  2  0  0  0  0
 45 47  1  0  0  0  0
 47 48  2  0  0  0  0
 47 49  1  0  0  0  0
 49 50  2  0  0  0  0
M  END
$$$$