
 OpenBabel11262013173D

 54 62  0  0  1  0  0  0  0  0999 V2000
    1.2803    0.3754   -4.4864 F   0  0  0  0  0  0  0  0  0  0  0  0
    0.8386    0.1415   -3.2354 C   0  0  0  0  0  0  0  0  0  0  0  0
    0.8690   -1.0861   -2.7164 C   0  0  0  0  0  0  0  0  0  0  0  0
    1.2998   -2.1723   -3.4604 O   0  0  0  0  0  0  0  0  0  0  0  0
    2.1727   -3.0424   -2.7529 C   0  0  2  0  0  0  0  0  0  0  0  0
    2.5005   -4.2518   -3.4936 O   0  0  0  0  0  0  0  0  0  0  0  0
    2.6732   -4.3114   -4.8653 C   0  0  0  0  0  0  0  0  0  0  0  0
    2.5782   -5.4986   -5.5220 C   0  0  0  0  0  0  0  0  0  0  0  0
    2.7729   -5.5755   -6.9119 O   0  0  0  0  0  0  0  0  0  0  0  0
    2.9397   -4.4255   -7.6855 C   0  0  0  0  0  0  0  0  0  0  0  0
    3.0881   -3.2236   -7.1035 C   0  0  0  0  0  0  0  0  0  0  0  0
    3.0302   -3.0443   -5.6139 C   0  0  0  0  0  0  0  0  0  0  0  0
    3.2403   -1.9628   -7.9098 C   0  0  3  0  0  0  0  0  0  0  0  0
    4.5001   -1.3921   -7.6108 O   0  0  0  0  0  0  0  0  0  0  0  0
    4.7615   -0.2042   -8.2288 C   0  0  0  0  0  0  0  0  0  0  0  0
    5.6506    0.5369   -7.8486 O   0  0  0  0  0  0  0  0  0  0  0  0
    3.9327    0.0956   -9.2608 O   0  0  0  0  0  0  0  0  0  0  0  0
    3.4746   -0.9521  -10.1066 C   0  0  3  0  0  0  0  0  0  0  0  0
    3.2631   -2.2276   -9.3655 C   0  0  0  0  0  0  0  0  0  0  0  0
    3.1223   -3.4638   -9.8936 C   0  0  0  0  0  0  0  0  0  0  0  0
    2.9481   -4.5634   -9.0609 O   0  3  0  0  0  0  0  0  0  0  0  0
    3.1049   -3.7421  -11.3522 C   0  0  0  0  0  0  0  0  0  0  0  0
    2.9510   -5.0889  -11.8345 O   0  0  0  0  0  0  0  0  0  0  0  0
    1.8915   -4.1291  -12.0097 O   0  0  0  0  0  0  0  0  0  0  0  0
    2.2014   -0.6081  -10.6105 O   0  0  0  0  0  0  0  0  0  0  0  0
    2.2730   -6.8337   -4.8633 C   0  0  0  0  0  0  0  0  0  0  0  0
    2.7048   -7.0740   -3.5537 C   0  0  0  0  0  0  0  0  0  0  0  0
    2.4313   -8.2203   -2.9208 N   0  3  0  0  0  0  0  0  0  0  0  0
    2.8588   -8.3868   -1.6538 F   0  0  0  0  0  0  0  0  0  0  0  0
    1.7592   -9.2007   -3.4837 N   0  0  0  0  0  0  0  0  0  0  0  0
    1.3172   -9.0704   -4.7331 C   0  0  0  0  0  0  0  0  0  0  0  0
    1.5637   -7.9044   -5.4922 C   0  0  0  0  0  0  0  0  0  0  0  0
    1.0600   -7.9008   -6.8164 C   0  0  0  0  0  0  0  0  0  0  0  0
    0.3254   -8.9723   -7.3479 C   0  0  0  0  0  0  0  0  0  0  0  0
   -0.1667   -8.8877   -8.7212 C   0  0  0  0  0  0  0  0  0  0  0  0
    0.1033   -7.9130   -9.4092 O   0  0  0  0  0  0  0  0  0  0  0  0
   -0.9708  -10.0584   -9.2314 C   0  0  0  0  0  0  0  0  0  0  0  0
   -1.1565  -10.1993  -10.4309 O   0  0  0  0  0  0  0  0  0  0  0  0
   -1.5488  -10.9514   -8.1535 C   0  0  1  0  0  0  0  0  0  0  0  0
   -0.6997  -11.1408   -7.0062 O   0  0  0  0  0  0  0  0  0  0  0  0
    0.0578  -10.0869   -6.5867 C   0  0  0  0  0  0  0  0  0  0  0  0
    0.5783  -10.1222   -5.2922 C   0  0  0  0  0  0  0  0  0  0  0  0
    0.3390  -11.2051   -4.5346 F   0  0  0  0  0  0  0  0  0  0  0  0
   -2.9658  -10.5206   -7.7936 C   0  0  1  0  0  0  0  0  0  0  0  0
   -4.0329  -10.5192   -8.8175 N   0  0  0  0  0  0  0  0  0  0  0  0
   -3.4169  -10.9715   -6.5081 O   0  0  0  0  0  0  0  0  0  0  0  0
   -3.2302   -9.6479   -6.6387 C   0  0  0  0  0  0  0  0  0  0  0  0
   -2.5052   -8.8724   -6.0556 O   0  0  0  0  0  0  0  0  0  0  0  0
    1.5412   -3.5940   -1.4744 C   0  0  0  0  0  0  0  0  0  0  0  0
    1.8932   -4.6248   -0.9129 O   0  0  0  0  0  0  0  0  0  0  0  0
    0.3660   -2.7755   -0.9920 C   0  0  0  0  0  0  0  0  0  0  0  0
   -0.5996   -3.3235   -0.4910 O   0  0  0  0  0  0  0  0  0  0  0  0
    0.3482   -1.3055   -1.3448 C   0  0  0  0  0  0  0  0  0  0  0  0
   -0.0095   -0.4398   -0.5733 O   0  0  0  0  0  0  0  0  0  0  0  0
  1  2  1  0  0  0  0
  2  3  2  0  0  0  0
  3  4  1  0  0  0  0
  3 53  1  0  0  0  0
  4  5  1  0  0  0  0
  5  6  1  6  0  0  0
  5 49  1  0  0  0  0
  6  7  1  0  0  0  0
  7  8  2  0  0  0  0
  7 12  1  0  0  0  0
  8  9  1  0  0  0  0
  8 26  1  0  0  0  0
  9 10  1  0  0  0  0
 10 11  2  0  0  0  0
 10 21  1  0  0  0  0
 11 12  1  0  0  0  0
 11 13  1  0  0  0  0
 13 14  1  0  0  0  0
 13 19  1  0  0  0  0
 14 15  1  0  0  0  0
 15 16  2  0  0  0  0
 15 17  1  0  0  0  0
 17 18  1  0  0  0  0
 18 19  1  0  0  0  0
 18 25  1  0  0  0  0
 19 20  2  0  0  0  0
 20 21  1  0  0  0  0
 20 22  1  0  0  0  0
 22 23  1  0  0  0  0
 22 24  1  0  0  0  0
 23 24  1  0  0  0  0
 26 27  2  0  0  0  0
 26 32  1  0  0  0  0
 27 28  1  0  0  0  0
 28 29  1  0  0  0  0
 28 30  2  0  0  0  0
 30 31  1  0  0  0  0
 31 32  2  0  0  0  0
 31 42  1  0  0  0  0
 32 33  1  0  0  0  0
 33 34  2  0  0  0  0
 34 35  1  0  0  0  0
 34 41  1  0  0  0  0
 35 36  2  0  0  0  0
 35 37  1  0  0  0  0
 37 38  2  0  0  0  0
 39 37  1  6  0  0  0
 39 40  1  0  0  0  0
 39 44  1  0  0  0  0
 40 41  1  0  0  0  0
 41 42  2  0  0  0  0
 42 43  1  0  0  0  0
 44 45  1  6  0  0  0
 44 46  1  0  0  0  0
 44 47  1  0  0  0  0
 46 47  1  0  0  0  0
 47 48  2  0  0  0  0
 49 50  2  0  0  0  0
 49 51  1  0  0  0  0
 51 52  2  0  0  0  0
 51 53  1  0  0  0  0
 53 54  2  0  0  0  0
M  CHG  2  21   1  28   1
M  END
$$$$