
 OpenBabel11212022363D

 54 62  0  0  1  0  0  0  0  0999 V2000
   -0.2687    3.6598   -0.9756 O   0  0  0  0  0  0  0  0  0  0  0  0
    0.4603    2.6693   -0.3709 C   0  0  0  0  0  0  0  0  0  0  0  0
    1.1244    1.7129   -1.0370 C   0  0  0  0  0  0  0  0  0  0  0  0
    1.0948    1.6224   -2.4231 O   0  0  0  0  0  0  0  0  0  0  0  0
    2.3244    1.2133   -2.9981 C   0  0  2  0  0  0  0  0  0  0  0  0
    2.1714    0.8933   -4.4045 O   0  0  0  0  0  0  0  0  0  0  0  0
    2.4099    1.7923   -5.4186 C   0  0  0  0  0  0  0  0  0  0  0  0
    2.2990    1.4018   -6.7145 C   0  0  0  0  0  0  0  0  0  0  0  0
    2.2771    2.3418   -7.7591 O   0  0  0  0  0  0  0  0  0  0  0  0
    2.2934    3.7134   -7.4563 C   0  0  0  0  0  0  0  0  0  0  0  0
    2.5587    4.1417   -6.2083 C   0  0  0  0  0  0  0  0  0  0  0  0
    2.7462    3.2097   -5.0604 C   0  0  0  0  0  0  0  0  0  0  0  0
    2.6723    5.5909   -5.8552 C   0  0  3  0  0  0  0  0  0  0  0  0
    4.0067    5.8139   -5.4336 O   0  0  0  0  0  0  0  0  0  0  0  0
    4.3004    7.0816   -5.0341 C   0  0  0  0  0  0  0  0  0  0  0  0
    5.2725    7.3236   -4.3403 O   0  0  0  0  0  0  0  0  0  0  0  0
    3.3945    8.0203   -5.4090 O   0  0  0  0  0  0  0  0  0  0  0  0
    2.6902    7.8850   -6.6394 C   0  0  3  0  0  0  0  0  0  0  0  0
    2.4628    6.4628   -7.0244 C   0  0  0  0  0  0  0  0  0  0  0  0
    2.1743    5.9825   -8.2563 C   0  0  0  0  0  0  0  0  0  0  0  0
    2.0571    4.6140   -8.4740 O   0  3  0  0  0  0  0  0  0  0  0  0
    2.0197    6.8413   -9.4515 C   0  0  0  0  0  0  0  0  0  0  0  0
    3.1495    7.1397  -10.2818 O   0  0  0  0  0  0  0  0  0  0  0  0
    2.1097    6.2699  -10.7685 O   0  0  0  0  0  0  0  0  0  0  0  0
    1.3856    8.4956   -6.4876 N   0  0  0  0  0  0  0  0  0  0  0  0
    2.2365   -0.0540   -7.1237 C   0  0  0  0  0  0  0  0  0  0  0  0
    3.0090   -0.9610   -6.3861 C   0  0  0  0  0  0  0  0  0  0  0  0
    2.9999   -2.2708   -6.6420 N   0  3  0  0  0  0  0  0  0  0  0  0
    3.7026   -3.0975   -5.8427 F   0  0  0  0  0  0  0  0  0  0  0  0
    2.3220   -2.7898   -7.6433 N   0  0  0  0  0  0  0  0  0  0  0  0
    1.5818   -2.0001   -8.4229 C   0  0  0  0  0  0  0  0  0  0  0  0
    1.4971   -0.6018   -8.2093 C   0  0  0  0  0  0  0  0  0  0  0  0
    0.6501    0.1274   -9.0780 C   0  0  0  0  0  0  0  0  0  0  0  0
   -0.0465   -0.4912  -10.1291 C   0  0  0  0  0  0  0  0  0  0  0  0
   -0.8922    0.3165  -11.0117 C   0  0  0  0  0  0  0  0  0  0  0  0
   -0.8956    1.5344  -10.9265 O   0  0  0  0  0  0  0  0  0  0  0  0
   -1.7177   -0.4485  -12.0170 C   0  0  0  0  0  0  0  0  0  0  0  0
   -2.0334    0.0682  -13.0764 O   0  0  0  0  0  0  0  0  0  0  0  0
   -2.0280   -1.8626  -11.5822 C   0  0  1  0  0  0  0  0  0  0  0  0
   -0.8240   -2.5471  -11.1531 O   0  0  0  0  0  0  0  0  0  0  0  0
   -0.0060   -1.8631  -10.2925 C   0  0  0  0  0  0  0  0  0  0  0  0
    0.8321   -2.5932   -9.4480 C   0  0  0  0  0  0  0  0  0  0  0  0
    0.8669   -3.9306   -9.5721 F   0  0  0  0  0  0  0  0  0  0  0  0
   -3.1516   -1.9130  -10.5667 C   0  0  1  0  0  0  0  0  0  0  0  0
   -4.4127   -1.3720  -11.0028 O   0  0  0  0  0  0  0  0  0  0  0  0
   -3.2455   -3.1247   -9.8052 O   0  0  0  0  0  0  0  0  0  0  0  0
   -2.9835   -2.0103   -9.1278 C   0  0  0  0  0  0  0  0  0  0  0  0
   -2.0720   -1.6965   -8.3695 O   0  0  0  0  0  0  0  0  0  0  0  0
    2.8360   -0.1116   -2.4719 C   0  0  0  0  0  0  0  0  0  0  0  0
    3.3285   -0.9962   -3.1683 O   0  0  0  0  0  0  0  0  0  0  0  0
    2.7238   -0.2481   -0.9836 C   0  0  0  0  0  0  0  0  0  0  0  0
    3.3503   -1.1359   -0.4295 O   0  0  0  0  0  0  0  0  0  0  0  0
    1.8723    0.7246   -0.2018 C   0  0  0  0  0  0  0  0  0  0  0  0
    1.8414    0.6969    1.0162 O   0  0  0  0  0  0  0  0  0  0  0  0
  1  2  1  0  0  0  0
  2  3  2  0  0  0  0
  3  4  1  0  0  0  0
  3 53  1  0  0  0  0
  4  5  1  0  0  0  0
  5  6  1  6  0  0  0
  5 49  1  0  0  0  0
  6  7  1  0  0  0  0
  7  8  2  0  0  0  0
  7 12  1  0  0  0  0
  8  9  1  0  0  0  0
  8 26  1  0  0  0  0
  9 10  1  0  0  0  0
 10 11  2  0  0  0  0
 10 21  1  0  0  0  0
 11 12  1  0  0  0  0
 11 13  1  0  0  0  0
 13 14  1  0  0  0  0
 13 19  1  0  0  0  0
 14 15  1  0  0  0  0
 15 16  2  0  0  0  0
 15 17  1  0  0  0  0
 17 18  1  0  0  0  0
 18 19  1  0  0  0  0
 18 25  1  0  0  0  0
 19 20  2  0  0  0  0
 20 21  1  0  0  0  0
 20 22  1  0  0  0  0
 22 23  1  0  0  0  0
 22 24  1  0  0  0  0
 23 24  1  0  0  0  0
 26 27  2  0  0  0  0
 26 32  1  0  0  0  0
 27 28  1  0  0  0  0
 28 29  1  0  0  0  0
 28 30  2  0  0  0  0
 30 31  1  0  0  0  0
 31 32  2  0  0  0  0
 31 42  1  0  0  0  0
 32 33  1  0  0  0  0
 33 34  2  0  0  0  0
 34 35  1  0  0  0  0
 34 41  1  0  0  0  0
 35 36  2  0  0  0  0
 35 37  1  0  0  0  0
 37 38  2  0  0  0  0
 39 37  1  1  0  0  0
 39 40  1  0  0  0  0
 39 44  1  0  0  0  0
 40 41  1  0  0  0  0
 41 42  2  0  0  0  0
 42 43  1  0  0  0  0
 44 45  1  6  0  0  0
 44 46  1  0  0  0  0
 44 47  1  0  0  0  0
 46 47  1  0  0  0  0
 47 48  2  0  0  0  0
 49 50  2  0  0  0  0
 49 51  1  0  0  0  0
 51 52  2  0  0  0  0
 51 53  1  0  0  0  0
 53 54  2  0  0  0  0
M  CHG  2  21   1  28   1
M  END
$$$$