
 OpenBabel11252023283D

 53 61  0  0  1  0  0  0  0  0999 V2000
    5.0310    4.9717    4.2327 O   0  0  0  0  0  0  0  0  0  0  0  0
    4.8175    4.5931    2.9275 C   0  0  0  0  0  0  0  0  0  0  0  0
    4.4211    3.3592    2.5930 C   0  0  0  0  0  0  0  0  0  0  0  0
    4.2936    2.3700    3.5532 O   0  0  0  0  0  0  0  0  0  0  0  0
    3.1111    1.5942    3.4375 C   0  0  2  0  0  0  0  0  0  0  0  0
    3.1005    0.5188    4.4476 O   0  0  0  0  0  0  0  0  0  0  0  0
    3.1825    0.8428    5.7988 C   0  0  0  0  0  0  0  0  0  0  0  0
    3.2818   -0.1273    6.7439 C   0  0  0  0  0  0  0  0  0  0  0  0
    3.3504    0.1812    8.1250 O   0  0  0  0  0  0  0  0  0  0  0  0
    3.3825    1.5396    8.5534 C   0  0  0  0  0  0  0  0  0  0  0  0
    3.2908    2.5395    7.6579 C   0  0  0  0  0  0  0  0  0  0  0  0
    3.1586    2.3054    6.1884 C   0  0  0  0  0  0  0  0  0  0  0  0
    3.3548    3.9974    8.0487 C   0  0  3  0  0  0  0  0  0  0  0  0
    2.1152    4.5889    7.6813 O   0  0  0  0  0  0  0  0  0  0  0  0
    2.0176    5.9108    7.9456 C   0  0  0  0  0  0  0  0  0  0  0  0
    1.1281    6.6284    7.3810 N   0  0  0  0  0  0  0  0  0  0  0  0
    2.9101    6.4337    8.8046 O   0  0  0  0  0  0  0  0  0  0  0  0
    3.4679    5.6382    9.8632 C   0  0  0  0  0  0  0  0  0  0  0  0
    3.5004    4.1788    9.5141 C   0  0  0  0  0  0  0  0  0  0  0  0
    3.5627    3.1403   10.3790 C   0  0  0  0  0  0  0  0  0  0  0  0
    3.5160    1.8255    9.9072 O   0  3  0  0  0  0  0  0  0  0  0  0
    3.5885    3.2886   11.8484 C   0  0  0  0  0  0  0  0  0  0  0  0
    4.7203    2.7370   12.5740 N   0  0  0  0  0  0  0  0  0  0  0  0
    4.4818    4.1492   12.5788 N   0  0  0  0  0  0  0  0  0  0  0  0
    3.3096   -1.6004    6.3743 C   0  0  0  0  0  0  0  0  0  0  0  0
    2.1051   -2.3053    6.2101 C   0  0  0  0  0  0  0  0  0  0  0  0
    2.1138   -3.5384    5.6866 N   0  3  0  0  0  0  0  0  0  0  0  0
    0.9564   -4.2255    5.5818 F   0  0  0  0  0  0  0  0  0  0  0  0
    3.2136   -4.1018    5.2322 N   0  0  0  0  0  0  0  0  0  0  0  0
    4.3955   -3.4817    5.4148 C   0  0  0  0  0  0  0  0  0  0  0  0
    4.4842   -2.2623    6.0822 N   0  3  0  0  0  0  0  0  0  0  0  0
    5.7066   -1.8083    6.4643 C   0  0  0  0  0  0  0  0  0  0  0  0
    6.8787   -2.4618    6.1052 C   0  0  0  0  0  0  0  0  0  0  0  0
    8.1485   -1.9601    6.6030 C   0  0  0  0  0  0  0  0  0  0  0  0
    8.1415   -1.0020    7.3561 O   0  0  0  0  0  0  0  0  0  0  0  0
    9.3867   -2.7072    6.1736 C   0  0  0  0  0  0  0  0  0  0  0  0
   10.3738   -2.7081    6.8867 O   0  0  0  0  0  0  0  0  0  0  0  0
    9.2295   -3.4248    4.8502 C   0  0  1  0  0  0  0  0  0  0  0  0
    7.9706   -4.1482    4.7626 O   0  0  0  0  0  0  0  0  0  0  0  0
    6.8452   -3.5624    5.2847 C   0  0  0  0  0  0  0  0  0  0  0  0
    5.5930   -4.0945    4.9369 C   0  0  0  0  0  0  0  0  0  0  0  0
    5.5668   -5.3668    4.3187 N   0  0  0  0  0  0  0  0  0  0  0  0
    9.4684   -2.4786    3.6965 C   0  0  1  0  0  0  0  0  0  0  0  0
   10.7717   -1.8812    3.6261 O   0  0  0  0  0  0  0  0  0  0  0  0
    8.8500   -2.8124    2.4541 O   0  0  0  0  0  0  0  0  0  0  0  0
    8.4002   -1.6988    3.0643 C   0  0  0  0  0  0  0  0  0  0  0  0
    7.3002   -1.4003    3.4795 O   0  0  0  0  0  0  0  0  0  0  0  0
    3.0214    0.8823    2.0974 C   0  0  0  0  0  0  0  0  0  0  0  0
    2.4204   -0.1730    1.9360 O   0  0  0  0  0  0  0  0  0  0  0  0
    3.8037    1.5596    0.9900 C   0  0  0  0  0  0  0  0  0  0  0  0
    4.2113    0.8958    0.0526 O   0  0  0  0  0  0  0  0  0  0  0  0
    4.2055    3.0124    1.1614 C   0  0  0  0  0  0  0  0  0  0  0  0
    4.3125    3.7840    0.2299 O   0  0  0  0  0  0  0  0  0  0  0  0
  1  2  1  0  0  0  0
  2  3  2  0  0  0  0
  3  4  1  0  0  0  0
  3 52  1  0  0  0  0
  4  5  1  0  0  0  0
  5  6  1  1  0  0  0
  5 48  1  0  0  0  0
  6  7  1  0  0  0  0
  7  8  2  0  0  0  0
  7 12  1  0  0  0  0
  8  9  1  0  0  0  0
  8 25  1  0  0  0  0
  9 10  1  0  0  0  0
 10 11  2  0  0  0  0
 10 21  1  0  0  0  0
 11 12  1  0  0  0  0
 11 13  1  0  0  0  0
 13 14  1  0  0  0  0
 13 19  1  0  0  0  0
 14 15  1  0  0  0  0
 15 16  2  0  0  0  0
 15 17  1  0  0  0  0
 17 18  1  0  0  0  0
 18 19  1  0  0  0  0
 19 20  2  0  0  0  0
 20 21  1  0  0  0  0
 20 22  1  0  0  0  0
 22 23  1  0  0  0  0
 22 24  1  0  0  0  0
 23 24  1  0  0  0  0
 25 26  2  0  0  0  0
 25 31  1  0  0  0  0
 26 27  1  0  0  0  0
 27 28  1  0  0  0  0
 27 29  2  0  0  0  0
 29 30  1  0  0  0  0
 30 31  2  0  0  0  0
 30 41  1  0  0  0  0
 31 32  1  0  0  0  0
 32 33  2  0  0  0  0
 33 34  1  0  0  0  0
 33 40  1  0  0  0  0
 34 35  2  0  0  0  0
 34 36  1  0  0  0  0
 36 37  2  0  0  0  0
 38 36  1  1  0  0  0
 38 39  1  0  0  0  0
 38 43  1  0  0  0  0
 39 40  1  0  0  0  0
 40 41  2  0  0  0  0
 41 42  1  0  0  0  0
 43 44  1  6  0  0  0
 43 45  1  0  0  0  0
 43 46  1  0  0  0  0
 45 46  1  0  0  0  0
 46 47  2  0  0  0  0
 48 49  2  0  0  0  0
 48 50  1  0  0  0  0
 50 51  2  0  0  0  0
 50 52  1  0  0  0  0
 52 53  2  0  0  0  0
M  CHG  3  21   1  27   1  31   1
M  END
$$$$