
 OpenBabel11262013573D

 54 62  0  0  1  0  0  0  0  0999 V2000
    0.8652    2.4077   -4.9826 F   0  0  0  0  0  0  0  0  0  0  0  0
    0.9642    2.1322   -3.6668 C   0  0  0  0  0  0  0  0  0  0  0  0
    0.9706    0.8745   -3.2202 C   0  0  0  0  0  0  0  0  0  0  0  0
    0.8261   -0.2018   -4.0801 O   0  0  0  0  0  0  0  0  0  0  0  0
    1.7887   -1.2289   -3.8239 C   0  0  2  0  0  0  0  0  0  0  0  0
    1.7514   -2.2419   -4.8644 O   0  0  0  0  0  0  0  0  0  0  0  0
    2.0792   -1.8678   -6.1648 C   0  0  0  0  0  0  0  0  0  0  0  0
    2.0577   -2.7643   -7.1764 C   0  0  0  0  0  0  0  0  0  0  0  0
    2.3281   -2.4186   -8.5121 O   0  0  0  0  0  0  0  0  0  0  0  0
    2.5856   -1.0800   -8.8459 C   0  0  0  0  0  0  0  0  0  0  0  0
    2.6605   -0.1402   -7.8888 C   0  0  0  0  0  0  0  0  0  0  0  0
    2.4572   -0.4381   -6.4424 C   0  0  0  0  0  0  0  0  0  0  0  0
    2.8815    1.3116   -8.1933 C   0  0  3  0  0  0  0  0  0  0  0  0
    4.1210    1.6965   -7.6377 O   0  0  0  0  0  0  0  0  0  0  0  0
    4.4316    3.0168   -7.7725 C   0  0  0  0  0  0  0  0  0  0  0  0
    5.2643    3.5502   -7.0601 O   0  0  0  0  0  0  0  0  0  0  0  0
    3.7380    3.6827   -8.7299 O   0  0  0  0  0  0  0  0  0  0  0  0
    3.1898    3.0172   -9.8648 C   0  0  3  0  0  0  0  0  0  0  0  0
    2.9987    1.5599   -9.6402 C   0  0  0  0  0  0  0  0  0  0  0  0
    2.9262    0.5798  -10.5670 C   0  0  0  0  0  0  0  0  0  0  0  0
    2.7489   -0.7453  -10.1768 O   0  3  0  0  0  0  0  0  0  0  0  0
    2.9698    0.8320  -12.0274 C   0  0  0  0  0  0  0  0  0  0  0  0
    2.8633   -0.2560  -12.9609 O   0  0  0  0  0  0  0  0  0  0  0  0
    1.7857    0.6897  -12.8241 O   0  0  0  0  0  0  0  0  0  0  0  0
    1.8871    3.5074  -10.1030 O   0  0  0  0  0  0  0  0  0  0  0  0
    1.8056   -4.2153   -6.9583 C   0  0  0  0  0  0  0  0  0  0  0  0
    2.9172   -5.0292   -6.7227 C   0  0  0  0  0  0  0  0  0  0  0  0
    2.7514   -6.3912   -6.5986 C   0  0  0  0  0  0  0  0  0  0  0  0
    3.8177   -7.1690   -6.3961 F   0  0  0  0  0  0  0  0  0  0  0  0
    1.5007   -6.9571   -6.7003 C   0  0  0  0  0  0  0  0  0  0  0  0
    0.3848   -6.1417   -6.9076 C   0  0  0  0  0  0  0  0  0  0  0  0
    0.5447   -4.7649   -7.0363 N   0  3  0  0  0  0  0  0  0  0  0  0
   -0.5678   -4.0012   -7.2374 C   0  0  0  0  0  0  0  0  0  0  0  0
   -1.8421   -4.5588   -7.3183 C   0  0  0  0  0  0  0  0  0  0  0  0
   -2.9800   -3.6917   -7.5972 C   0  0  0  0  0  0  0  0  0  0  0  0
   -2.7842   -2.5080   -7.8160 O   0  0  0  0  0  0  0  0  0  0  0  0
   -4.3419   -4.3490   -7.6581 C   0  0  0  0  0  0  0  0  0  0  0  0
   -5.2625   -3.8053   -8.2440 O   0  0  0  0  0  0  0  0  0  0  0  0
   -4.4088   -5.6896   -6.9585 C   0  0  1  0  0  0  0  0  0  0  0  0
   -3.2556   -6.5174   -7.2200 O   0  0  0  0  0  0  0  0  0  0  0  0
   -2.0340   -5.9123   -7.1747 C   0  0  0  0  0  0  0  0  0  0  0  0
   -0.9083   -6.7007   -6.9935 C   0  0  0  0  0  0  0  0  0  0  0  0
   -1.0561   -8.0299   -6.8933 F   0  0  0  0  0  0  0  0  0  0  0  0
   -4.6021   -5.5310   -5.4851 C   0  0  1  0  0  0  0  0  0  0  0  0
   -3.5988   -4.7401   -4.7852 O   0  0  0  0  0  0  0  0  0  0  0  0
   -5.9423   -5.3266   -5.0501 O   0  0  0  0  0  0  0  0  0  0  0  0
   -5.3609   -6.4833   -4.6839 C   0  0  0  0  0  0  0  0  0  0  0  0
   -5.1197   -6.9378   -3.5852 O   0  0  0  0  0  0  0  0  0  0  0  0
    1.5049   -1.8622   -2.4687 C   0  0  0  0  0  0  0  0  0  0  0  0
    1.6496   -3.0492   -2.2179 O   0  0  0  0  0  0  0  0  0  0  0  0
    1.0493   -0.8543   -1.4269 C   0  0  0  0  0  0  0  0  0  0  0  0
    0.5580   -1.2240   -0.3761 O   0  0  0  0  0  0  0  0  0  0  0  0
    1.1409    0.6233   -1.7671 C   0  0  0  0  0  0  0  0  0  0  0  0
    1.4046    1.4795   -0.9465 O   0  0  0  0  0  0  0  0  0  0  0  0
  1  2  1  0  0  0  0
  2  3  2  0  0  0  0
  3  4  1  0  0  0  0
  3 53  1  0  0  0  0
  4  5  1  0  0  0  0
  5  6  1  6  0  0  0
  5 49  1  0  0  0  0
  6  7  1  0  0  0  0
  7  8  2  0  0  0  0
  7 12  1  0  0  0  0
  8  9  1  0  0  0  0
  8 26  1  0  0  0  0
  9 10  1  0  0  0  0
 10 11  2  0  0  0  0
 10 21  1  0  0  0  0
 11 12  1  0  0  0  0
 11 13  1  0  0  0  0
 13 14  1  0  0  0  0
 13 19  1  0  0  0  0
 14 15  1  0  0  0  0
 15 16  2  0  0  0  0
 15 17  1  0  0  0  0
 17 18  1  0  0  0  0
 18 19  1  0  0  0  0
 18 25  1  0  0  0  0
 19 20  2  0  0  0  0
 20 21  1  0  0  0  0
 20 22  1  0  0  0  0
 22 23  1  0  0  0  0
 22 24  1  0  0  0  0
 23 24  1  0  0  0  0
 26 27  2  0  0  0  0
 26 32  1  0  0  0  0
 27 28  1  0  0  0  0
 28 29  1  0  0  0  0
 28 30  2  0  0  0  0
 30 31  1  0  0  0  0
 31 32  2  0  0  0  0
 31 42  1  0  0  0  0
 32 33  1  0  0  0  0
 33 34  2  0  0  0  0
 34 35  1  0  0  0  0
 34 41  1  0  0  0  0
 35 36  2  0  0  0  0
 35 37  1  0  0  0  0
 37 38  2  0  0  0  0
 39 37  1  6  0  0  0
 39 40  1  0  0  0  0
 39 44  1  0  0  0  0
 40 41  1  0  0  0  0
 41 42  2  0  0  0  0
 42 43  1  0  0  0  0
 44 45  1  1  0  0  0
 44 46  1  0  0  0  0
 44 47  1  0  0  0  0
 46 47  1  0  0  0  0
 47 48  2  0  0  0  0
 49 50  2  0  0  0  0
 49 51  1  0  0  0  0
 51 52  2  0  0  0  0
 51 53  1  0  0  0  0
 53 54  2  0  0  0  0
M  CHG  2  21   1  32   1
M  END
$$$$