
 OpenBabel10232010113D

 81 94  0  0  1  0  0  0  0  0999 V2000
    1.6579   -0.6950   -3.2362 O   0  0  0  0  0  0  0  0  0  0  0  0
    1.6489   -0.3585   -1.8335 C   0  0  3  0  0  0  0  0  0  0  0  0
    2.4318    0.9385   -1.5488 C   0  0  3  0  0  0  0  0  0  0  0  0
    3.8130    0.7780   -1.9664 O   0  0  0  0  0  0  0  0  0  0  0  0
    4.4615   -0.3760   -1.6300 C   0  0  0  0  0  0  0  0  0  0  0  0
    3.7978   -1.4456   -1.0385 C   0  0  0  0  0  0  0  0  0  0  0  0
    2.3000   -1.5336   -1.0852 C   0  0  3  0  0  0  0  0  0  0  0  0
    1.9636   -2.7861   -1.7152 O   0  0  0  0  0  0  0  0  0  0  0  0
    4.5778   -2.4063   -0.3941 C   0  0  0  0  0  0  0  0  0  0  0  0
    5.9864   -2.4266   -0.4232 C   0  0  0  0  0  0  0  0  0  0  0  0
    6.6375   -1.5438   -1.3326 C   0  0  0  0  0  0  0  0  0  0  0  0
    5.8380   -0.4832   -1.8414 C   0  0  0  0  0  0  0  0  0  0  0  0
    6.4495    0.5252   -2.5069 F   0  0  0  0  0  0  0  0  0  0  0  0
    7.9989   -1.8242   -1.5839 C   0  0  0  0  0  0  0  0  0  0  0  0
    8.9022   -0.9366   -2.7640 Cl  0  0  0  0  0  0  0  0  0  0  0  0
    8.7000   -2.8848   -0.9480 C   0  0  0  0  0  0  0  0  0  0  0  0
    8.1402   -3.6286    0.1103 C   0  0  0  0  0  0  0  0  0  0  0  0
    6.7871   -3.2857    0.3848 C   0  0  0  0  0  0  0  0  0  0  0  0
    6.0611   -3.7484    1.9370 Cl  0  0  0  0  0  0  0  0  0  0  0  0
    8.9075   -4.7509    0.8188 C   0  0  0  0  0  0  0  0  0  0  0  0
    8.2026   -5.8509    1.3932 C   0  0  0  0  0  0  0  0  0  0  0  0
    8.7589   -6.9375    2.2122 C   0  0  0  0  0  0  0  0  0  0  0  0
    8.1832   -8.0195    3.2189 C   0  0  0  0  0  0  0  0  0  0  0  0
    9.1156   -8.8731    3.8490 C   0  0  0  0  0  0  0  0  0  0  0  0
    8.8847   -9.6456    4.9959 N   0  0  0  0  0  0  0  0  0  0  0  0
   10.4454   -8.7686    3.4539 C   0  0  0  0  0  0  0  0  0  0  0  0
   10.9151   -7.8971    2.5758 N   0  0  0  0  0  0  0  0  0  0  0  0
   10.1671   -6.9487    2.0464 N   0  3  0  0  0  0  0  0  0  0  0  0
   10.8742   -5.9643    1.3801 N   0  3  0  0  0  0  0  0  0  0  0  0
   10.3052   -4.7998    0.9766 C   0  0  0  0  0  0  0  0  0  0  0  0
   11.2092   -3.5997    0.8336 C   0  0  0  0  0  0  0  0  0  0  0  0
   12.5579   -6.2379    1.0668 Cl  0  0  0  0  0  0  0  0  0  0  0  0
    6.5510   -8.2903    3.5665 N   0  3  0  0  0  0  0  0  0  0  0  0
    5.9955   -8.7752    4.8237 N   0  3  0  0  0  0  0  0  0  0  0  0
    6.8100   -8.7920    6.3428 Cl  0  0  0  0  0  0  0  0  0  0  0  0
    4.6379   -9.0532    4.9915 C   0  0  0  0  0  0  0  0  0  0  0  0
    3.6455   -8.9732    3.9950 C   0  0  0  0  0  0  0  0  0  0  0  0
    4.1339   -8.5960    2.7588 C   0  0  0  0  0  0  0  0  0  0  0  0
    5.5689   -8.1896    2.5614 C   0  0  0  0  0  0  0  0  0  0  0  0
    5.8940   -7.6617    1.2988 N   0  0  0  0  0  0  0  0  0  0  0  0
    3.2416   -8.6300    1.7579 N   0  0  0  0  0  0  0  0  0  0  0  0
    1.9369   -9.0083    1.8459 N   0  3  0  0  0  0  0  0  0  0  0  0
    1.3367   -9.2527    3.0615 C   0  0  0  0  0  0  0  0  0  0  0  0
    2.2387   -9.2207    4.1512 N   0  3  0  0  0  0  0  0  0  0  0  0
    1.7306   -9.4075    5.4156 N   0  0  0  0  0  0  0  0  0  0  0  0
    0.4071   -9.6116    5.6396 N   0  3  0  0  0  0  0  0  0  0  0  0
   -0.1111   -9.7534    7.0503 C   0  0  0  0  0  0  0  0  0  0  0  0
   -0.4428   -9.6852    4.6053 C   0  0  0  0  0  0  0  0  0  0  0  0
    0.0054   -9.5068    3.3402 N   0  3  0  0  0  0  0  0  0  0  0  0
   -1.2370   -9.5596    2.1558 Cl  0  0  0  0  0  0  0  0  0  0  0  0
    1.1860   -9.2213    0.3212 Cl  0  0  0  0  0  0  0  0  0  0  0  0
    2.2782    1.5052   -0.0771 C   0  0  3  0  0  0  0  0  0  0  0  0
    0.7952    1.8589    0.2027 C   0  0  0  0  0  0  0  0  0  0  0  0
    0.5770    2.6226    1.5086 C   0  0  0  0  0  0  0  0  0  0  0  0
    1.4266    3.8541    1.5878 C   0  0  0  0  0  0  0  0  0  0  0  0
    2.7031    3.8441    1.0541 C   0  0  0  0  0  0  0  0  0  0  0  0
    3.2183    2.7316    0.1526 C   0  0  3  0  0  0  0  0  0  0  0  0
    4.6071    2.3055    0.6821 C   0  0  3  0  0  0  0  0  0  0  0  0
    4.4477    1.5370    1.8085 F   0  0  0  0  0  0  0  0  0  0  0  0
    5.5582    3.4649    1.0103 C   0  0  0  0  0  0  0  0  0  0  0  0
    4.9451    4.8364    0.6917 C   0  0  3  0  0  0  0  0  0  0  0  0
    3.5808    4.9089    1.3559 C   0  0  0  0  0  0  0  0  0  0  0  0
    3.2110    5.9532    2.2493 C   0  0  0  0  0  0  0  0  0  0  0  0
    1.8377    6.0968    2.6033 C   0  0  0  0  0  0  0  0  0  0  0  0
    0.9891    5.0026    2.2757 C   0  0  0  0  0  0  0  0  0  0  0  0
    1.2442    7.3109    3.2781 C   0  0  0  0  0  0  0  0  0  0  0  0
    1.7341    8.6167    3.0580 C   0  0  0  0  0  0  0  0  0  0  0  0
    1.2091    9.7590    3.7004 C   0  0  0  0  0  0  0  0  0  0  0  0
    2.0146   11.0413    3.6918 C   0  0  0  0  0  0  0  0  0  0  0  0
    1.3077   12.2778    4.2513 C   0  0  0  0  0  0  0  0  0  0  0  0
    0.3503   11.9380    5.3899 C   0  0  0  0  0  0  0  0  0  0  0  0
   -0.6737   10.8753    4.9701 C   0  0  3  0  0  0  0  0  0  0  0  0
    0.0341    9.6434    4.4473 C   0  0  0  0  0  0  0  0  0  0  0  0
   -0.4853    8.3680    4.6792 C   0  0  0  0  0  0  0  0  0  0  0  0
    0.1451    7.2333    4.1541 C   0  0  0  0  0  0  0  0  0  0  0  0
   -0.3438    6.0396    4.5314 F   0  0  0  0  0  0  0  0  0  0  0  0
   -1.6463   11.4116    3.9083 C   0  0  0  0  0  0  0  0  0  0  0  0
    4.3263    6.8279    2.8295 C   0  0  3  0  0  0  0  0  0  0  0  0
    5.7428    6.3224    2.5256 C   0  0  0  0  0  0  0  0  0  0  0  0
    5.8688    5.9953    1.0522 C   0  0  0  0  0  0  0  0  0  0  0  0
    4.2154    6.9022    4.6216 Cl  0  0  0  0  0  0  0  0  0  0  0  0
  1  2  1  0  0  0  0
  2  3  1  0  0  0  0
  2  7  1  0  0  0  0
  3  4  1  0  0  0  0
  3 52  1  0  0  0  0
  4  5  1  0  0  0  0
  5  6  2  0  0  0  0
  5 12  1  0  0  0  0
  6  7  1  0  0  0  0
  6  9  1  0  0  0  0
  7  8  1  0  0  0  0
  9 10  2  0  0  0  0
 10 11  1  0  0  0  0
 10 18  1  0  0  0  0
 11 12  2  0  0  0  0
 11 14  1  0  0  0  0
 12 13  1  0  0  0  0
 14 15  1  0  0  0  0
 14 16  2  0  0  0  0
 16 17  1  0  0  0  0
 17 18  2  0  0  0  0
 17 20  1  0  0  0  0
 18 19  1  0  0  0  0
 20 21  2  0  0  0  0
 20 30  1  0  0  0  0
 21 22  1  0  0  0  0
 22 23  2  0  0  0  0
 22 28  1  0  0  0  0
 23 24  1  0  0  0  0
 23 33  1  0  0  0  0
 24 25  1  0  0  0  0
 24 26  2  0  0  0  0
 26 27  1  0  0  0  0
 27 28  2  0  0  0  0
 28 29  1  0  0  0  0
 29 30  2  0  0  0  0
 29 32  1  0  0  0  0
 30 31  1  0  0  0  0
 33 34  2  0  0  0  0
 33 39  1  0  0  0  0
 34 35  1  0  0  0  0
 34 36  1  0  0  0  0
 36 37  2  0  0  0  0
 37 38  1  0  0  0  0
 37 44  1  0  0  0  0
 38 39  2  0  0  0  0
 38 41  1  0  0  0  0
 39 40  1  0  0  0  0
 41 42  2  0  0  0  0
 42 43  1  0  0  0  0
 42 51  1  0  0  0  0
 43 44  2  0  0  0  0
 43 49  1  0  0  0  0
 44 45  1  0  0  0  0
 45 46  2  0  0  0  0
 46 47  1  0  0  0  0
 46 48  1  0  0  0  0
 48 49  2  0  0  0  0
 49 50  1  0  0  0  0
 52 53  1  0  0  0  0
 52 57  1  0  0  0  0
 53 54  1  0  0  0  0
 54 55  1  0  0  0  0
 55 56  2  0  0  0  0
 55 65  1  0  0  0  0
 56 57  1  0  0  0  0
 56 62  1  0  0  0  0
 57 58  1  0  0  0  0
 58 59  1  0  0  0  0
 58 60  1  0  0  0  0
 60 61  1  0  0  0  0
 61 62  1  0  0  0  0
 61 80  1  0  0  0  0
 62 63  2  0  0  0  0
 63 64  1  0  0  0  0
 63 78  1  0  0  0  0
 64 65  2  0  0  0  0
 64 66  1  0  0  0  0
 66 67  2  0  0  0  0
 66 75  1  0  0  0  0
 67 68  1  0  0  0  0
 68 69  1  0  0  0  0
 68 73  2  0  0  0  0
 69 70  1  0  0  0  0
 70 71  1  0  0  0  0
 71 72  1  0  0  0  0
 72 73  1  0  0  0  0
 72 77  1  0  0  0  0
 73 74  1  0  0  0  0
 74 75  2  0  0  0  0
 75 76  1  0  0  0  0
 78 79  1  0  0  0  0
 78 81  1  0  0  0  0
 79 80  1  0  0  0  0
M  CHG  8  28   1  29   1  33   1  34   1  42   1  44   1  46   1  49   1
M  END
$$$$