
 OpenBabel11212002053D

 54 62  0  0  1  0  0  0  0  0999 V2000
    7.2117   -3.0376    4.8432 O   0  0  0  0  0  0  0  0  0  0  0  0
    7.0350   -1.6879    4.6664 C   0  0  0  0  0  0  0  0  0  0  0  0
    5.8813   -1.1484    4.2522 C   0  0  0  0  0  0  0  0  0  0  0  0
    4.8028   -1.9481    3.9200 O   0  0  0  0  0  0  0  0  0  0  0  0
    3.5231   -1.3908    4.2255 C   0  0  2  0  0  0  0  0  0  0  0  0
    2.4715   -2.3321    3.9232 O   0  0  0  0  0  0  0  0  0  0  0  0
    2.5334   -3.5684    4.5580 C   0  0  0  0  0  0  0  0  0  0  0  0
    2.0330   -4.6863    3.9849 C   0  0  0  0  0  0  0  0  0  0  0  0
    2.1389   -5.9513    4.5709 O   0  0  0  0  0  0  0  0  0  0  0  0
    2.8182   -6.0960    5.7803 C   0  0  0  0  0  0  0  0  0  0  0  0
    3.2613   -5.0268    6.4649 C   0  0  0  0  0  0  0  0  0  0  0  0
    3.1327   -3.6329    5.9391 C   0  0  0  0  0  0  0  0  0  0  0  0
    3.9805   -5.1533    7.7745 C   0  0  3  0  0  0  0  0  0  0  0  0
    3.1606   -4.5880    8.7802 O   0  0  0  0  0  0  0  0  0  0  0  0
    3.6556   -4.6072   10.0477 C   0  0  0  0  0  0  0  0  0  0  0  0
    3.2059   -3.8866   10.9228 O   0  0  0  0  0  0  0  0  0  0  0  0
    4.6881   -5.4604   10.2618 O   0  0  0  0  0  0  0  0  0  0  0  0
    4.8976   -6.6202    9.4618 C   0  0  3  0  0  0  0  0  0  0  0  0
    4.1832   -6.5640    8.1602 C   0  0  0  0  0  0  0  0  0  0  0  0
    3.7457   -7.6023    7.4133 C   0  0  0  0  0  0  0  0  0  0  0  0
    3.0285   -7.3740    6.2454 O   0  3  0  0  0  0  0  0  0  0  0  0
    3.9787   -9.0182    7.7776 C   0  0  0  0  0  0  0  0  0  0  0  0
    3.0255   -9.7464    8.5600 O   0  0  0  0  0  0  0  0  0  0  0  0
    3.2106  -10.0684    7.1673 O   0  0  0  0  0  0  0  0  0  0  0  0
    6.2692   -6.6881    9.1236 O   0  0  0  0  0  0  0  0  0  0  0  0
    1.3199   -4.6864    2.6866 C   0  0  0  0  0  0  0  0  0  0  0  0
   -0.0565   -4.5342    2.6970 C   0  0  0  0  0  0  0  0  0  0  0  0
   -0.7830   -4.5272    1.5728 N   0  0  0  0  0  0  0  0  0  0  0  0
   -0.1531   -4.6407    0.3579 N   0  0  0  0  0  0  0  0  0  0  0  0
    1.1811   -4.7932    0.2452 C   0  0  0  0  0  0  0  0  0  0  0  0
    1.9570   -4.8428    1.4301 C   0  0  0  0  0  0  0  0  0  0  0  0
    3.3395   -5.0629    1.3204 C   0  0  0  0  0  0  0  0  0  0  0  0
    3.9478   -5.2422    0.0758 C   0  0  0  0  0  0  0  0  0  0  0  0
    5.3736   -5.5732    0.0351 C   0  0  0  0  0  0  0  0  0  0  0  0
    6.0590   -5.5808    1.0456 O   0  0  0  0  0  0  0  0  0  0  0  0
    5.9549   -5.9121   -1.3106 C   0  0  0  0  0  0  0  0  0  0  0  0
    6.9958   -6.5443   -1.4006 O   0  0  0  0  0  0  0  0  0  0  0  0
    5.2187   -5.2896   -2.4659 C   0  0  1  0  0  0  0  0  0  0  0  0
    3.7945   -5.3070   -2.3310 O   0  0  0  0  0  0  0  0  0  0  0  0
    3.2161   -5.1494   -1.0986 C   0  0  0  0  0  0  0  0  0  0  0  0
    1.8165   -4.9213   -1.0197 C   0  0  0  0  0  0  0  0  0  0  0  0
    1.0195   -4.7627   -2.1498 N   0  0  0  0  0  0  0  0  0  0  0  0
    1.3515   -5.4512   -3.1206 O   0  0  0  0  0  0  0  0  0  0  0  0
    5.7025   -3.9069   -2.7803 C   0  0  1  0  0  0  0  0  0  0  0  0
    5.0285   -3.2344   -3.8671 O   0  0  0  0  0  0  0  0  0  0  0  0
    5.9947   -3.0987   -1.6395 O   0  0  0  0  0  0  0  0  0  0  0  0
    7.0352   -3.3981   -2.4515 C   0  0  0  0  0  0  0  0  0  0  0  0
    7.7707   -2.6514   -3.0516 O   0  0  0  0  0  0  0  0  0  0  0  0
    3.3340   -0.0981    3.4511 C   0  0  0  0  0  0  0  0  0  0  0  0
    2.3756    0.1890    2.7523 O   0  0  0  0  0  0  0  0  0  0  0  0
    4.4753    0.8674    3.6657 C   0  0  0  0  0  0  0  0  0  0  0  0
    4.2972    2.0668    3.5310 O   0  0  0  0  0  0  0  0  0  0  0  0
    5.8193    0.3361    4.1221 C   0  0  0  0  0  0  0  0  0  0  0  0
    6.7479    1.0774    4.3963 O   0  0  0  0  0  0  0  0  0  0  0  0
  1  2  1  0  0  0  0
  2  3  2  0  0  0  0
  3  4  1  0  0  0  0
  3 53  1  0  0  0  0
  4  5  1  0  0  0  0
  5  6  1  6  0  0  0
  5 49  1  0  0  0  0
  6  7  1  0  0  0  0
  7  8  2  0  0  0  0
  7 12  1  0  0  0  0
  8  9  1  0  0  0  0
  8 26  1  0  0  0  0
  9 10  1  0  0  0  0
 10 11  2  0  0  0  0
 10 21  1  0  0  0  0
 11 12  1  0  0  0  0
 11 13  1  0  0  0  0
 13 14  1  0  0  0  0
 13 19  1  0  0  0  0
 14 15  1  0  0  0  0
 15 16  2  0  0  0  0
 15 17  1  0  0  0  0
 17 18  1  0  0  0  0
 18 19  1  0  0  0  0
 18 25  1  0  0  0  0
 19 20  2  0  0  0  0
 20 21  1  0  0  0  0
 20 22  1  0  0  0  0
 22 23  1  0  0  0  0
 22 24  1  0  0  0  0
 23 24  1  0  0  0  0
 26 27  2  0  0  0  0
 26 31  1  0  0  0  0
 27 28  1  0  0  0  0
 28 29  2  0  0  0  0
 29 30  1  0  0  0  0
 30 31  2  0  0  0  0
 30 41  1  0  0  0  0
 31 32  1  0  0  0  0
 32 33  2  0  0  0  0
 33 34  1  0  0  0  0
 33 40  1  0  0  0  0
 34 35  2  0  0  0  0
 34 36  1  0  0  0  0
 36 37  2  0  0  0  0
 38 36  1  1  0  0  0
 38 39  1  0  0  0  0
 38 44  1  0  0  0  0
 39 40  1  0  0  0  0
 40 41  2  0  0  0  0
 41 42  1  0  0  0  0
 42 43  2  0  0  0  0
 44 45  1  6  0  0  0
 44 46  1  0  0  0  0
 44 47  1  0  0  0  0
 46 47  1  0  0  0  0
 47 48  2  0  0  0  0
 49 50  2  0  0  0  0
 49 51  1  0  0  0  0
 51 52  2  0  0  0  0
 51 53  1  0  0  0  0
 53 54  2  0  0  0  0
M  CHG  1  21   1
M  END
$$$$