
 OpenBabel11272020123D

 54 62  0  0  1  0  0  0  0  0999 V2000
    4.3618   -4.1408   -2.1132 F   0  0  0  0  0  0  0  0  0  0  0  0
    4.6081   -2.8906   -1.6694 C   0  0  0  0  0  0  0  0  0  0  0  0
    4.0515   -2.4447   -0.5414 C   0  0  0  0  0  0  0  0  0  0  0  0
    3.1631   -3.2556    0.1423 O   0  0  0  0  0  0  0  0  0  0  0  0
    3.0829   -3.0569    1.5448 C   0  0  2  0  0  0  0  0  0  0  0  0
    2.0796   -3.9208    2.1239 O   0  0  0  0  0  0  0  0  0  0  0  0
    2.2301   -5.3002    2.0623 C   0  0  0  0  0  0  0  0  0  0  0  0
    1.3029   -6.1303    2.6034 C   0  0  0  0  0  0  0  0  0  0  0  0
    1.4340   -7.5344    2.4853 O   0  0  0  0  0  0  0  0  0  0  0  0
    2.5544   -8.1093    1.8601 C   0  0  0  0  0  0  0  0  0  0  0  0
    3.5442   -7.3407    1.3839 C   0  0  0  0  0  0  0  0  0  0  0  0
    3.4581   -5.8460    1.3825 C   0  0  0  0  0  0  0  0  0  0  0  0
    4.7921   -7.9003    0.7817 C   0  0  3  0  0  0  0  0  0  0  0  0
    5.8822   -7.4415    1.5496 O   0  0  0  0  0  0  0  0  0  0  0  0
    7.1160   -7.7823    1.0837 C   0  0  0  0  0  0  0  0  0  0  0  0
    8.1023   -7.1268    1.3484 O   0  0  0  0  0  0  0  0  0  0  0  0
    7.1660   -8.9556    0.3946 O   0  0  0  0  0  0  0  0  0  0  0  0
    6.1623   -9.8286    0.4733 C   0  0  0  0  0  0  0  0  0  0  0  0
    6.2694  -11.0339    0.2558 O   0  0  0  0  0  0  0  0  0  0  0  0
    4.8258   -9.3816    0.8793 C   0  0  0  0  0  0  0  0  0  0  0  0
    3.7914  -10.1804    1.2928 C   0  0  0  0  0  0  0  0  0  0  0  0
    2.6052   -9.4999    1.7559 O   0  3  0  0  0  0  0  0  0  0  0  0
    3.7680  -11.7320    1.3355 C   0  0  0  0  0  0  0  0  0  0  0  0
    5.0064  -12.6017    1.5086 N   0  3  0  0  0  0  0  0  0  0  0  0
    4.6314  -12.6347    0.4623 N   0  3  0  0  0  0  0  0  0  0  0  0
    0.0873   -5.6323    3.3754 C   0  0  0  0  0  0  0  0  0  0  0  0
    0.1948   -4.4456    4.1166 C   0  0  0  0  0  0  0  0  0  0  0  0
   -0.8357   -3.9366    4.7983 N   0  3  0  0  0  0  0  0  0  0  0  0
   -0.6735   -2.7756    5.4632 F   0  0  0  0  0  0  0  0  0  0  0  0
   -2.0022   -4.5316    4.8597 N   0  0  0  0  0  0  0  0  0  0  0  0
   -2.2094   -5.6681    4.1976 C   0  0  0  0  0  0  0  0  0  0  0  0
   -1.1827   -6.2771    3.4282 C   0  0  0  0  0  0  0  0  0  0  0  0
   -1.5163   -7.4737    2.7558 C   0  0  0  0  0  0  0  0  0  0  0  0
   -2.7999   -8.0321    2.8282 C   0  0  0  0  0  0  0  0  0  0  0  0
   -3.0607   -9.3256    2.1950 C   0  0  0  0  0  0  0  0  0  0  0  0
   -2.1207   -9.9697    1.7407 O   0  0  0  0  0  0  0  0  0  0  0  0
   -4.4940   -9.8188    2.2211 C   0  0  0  0  0  0  0  0  0  0  0  0
   -4.7264  -10.9938    1.9883 O   0  0  0  0  0  0  0  0  0  0  0  0
   -5.5208   -8.7440    2.5378 C   0  0  1  0  0  0  0  0  0  0  0  0
   -5.0856   -7.8754    3.6051 O   0  0  0  0  0  0  0  0  0  0  0  0
   -3.8030   -7.4028    3.5342 C   0  0  0  0  0  0  0  0  0  0  0  0
   -3.4948   -6.2486    4.2749 C   0  0  0  0  0  0  0  0  0  0  0  0
   -4.5491   -5.5591    4.9093 N   0  0  0  0  0  0  0  0  0  0  0  0
   -5.9730   -7.9438    1.3401 C   0  0  1  0  0  0  0  0  0  0  0  0
   -6.9278   -6.8951    1.5957 O   0  0  0  0  0  0  0  0  0  0  0  0
   -4.9610   -7.6003    0.3945 O   0  0  0  0  0  0  0  0  0  0  0  0
   -5.9027   -8.4872   -0.0157 C   0  0  0  0  0  0  0  0  0  0  0  0
   -5.7300   -9.6122   -0.4215 O   0  0  0  0  0  0  0  0  0  0  0  0
    2.7352   -1.6165    1.8378 C   0  0  0  0  0  0  0  0  0  0  0  0
    1.7758   -1.2416    2.4918 O   0  0  0  0  0  0  0  0  0  0  0  0
    3.7924   -0.7056    1.2738 C   0  0  0  0  0  0  0  0  0  0  0  0
    4.2798    0.1450    1.9955 O   0  0  0  0  0  0  0  0  0  0  0  0
    4.3995   -1.0696   -0.0730 C   0  0  0  0  0  0  0  0  0  0  0  0
    5.1565   -0.3289   -0.6701 O   0  0  0  0  0  0  0  0  0  0  0  0
  1  2  1  0  0  0  0
  2  3  2  0  0  0  0
  3  4  1  0  0  0  0
  3 53  1  0  0  0  0
  4  5  1  0  0  0  0
  5  6  1  6  0  0  0
  5 49  1  0  0  0  0
  6  7  1  0  0  0  0
  7  8  2  0  0  0  0
  7 12  1  0  0  0  0
  8  9  1  0  0  0  0
  8 26  1  0  0  0  0
  9 10  1  0  0  0  0
 10 11  2  0  0  0  0
 10 22  1  0  0  0  0
 11 12  1  0  0  0  0
 11 13  1  0  0  0  0
 13 14  1  0  0  0  0
 13 20  1  0  0  0  0
 14 15  1  0  0  0  0
 15 16  2  0  0  0  0
 15 17  1  0  0  0  0
 17 18  1  0  0  0  0
 18 19  2  0  0  0  0
 18 20  1  0  0  0  0
 20 21  2  0  0  0  0
 21 22  1  0  0  0  0
 21 23  1  0  0  0  0
 23 24  1  0  0  0  0
 23 25  1  0  0  0  0
 24 25  3  0  0  0  0
 26 27  2  0  0  0  0
 26 32  1  0  0  0  0
 27 28  1  0  0  0  0
 28 29  1  0  0  0  0
 28 30  2  0  0  0  0
 30 31  1  0  0  0  0
 31 32  2  0  0  0  0
 31 42  1  0  0  0  0
 32 33  1  0  0  0  0
 33 34  2  0  0  0  0
 34 35  1  0  0  0  0
 34 41  1  0  0  0  0
 35 36  2  0  0  0  0
 35 37  1  0  0  0  0
 37 38  2  0  0  0  0
 39 37  1  6  0  0  0
 39 40  1  0  0  0  0
 39 44  1  0  0  0  0
 40 41  1  0  0  0  0
 41 42  2  0  0  0  0
 42 43  1  0  0  0  0
 44 45  1  1  0  0  0
 44 46  1  0  0  0  0
 44 47  1  0  0  0  0
 46 47  1  0  0  0  0
 47 48  2  0  0  0  0
 49 50  2  0  0  0  0
 49 51  1  0  0  0  0
 51 52  2  0  0  0  0
 51 53  1  0  0  0  0
 53 54  2  0  0  0  0
M  CHG  4  22   1  24   1  25   1  28   1
M  END
$$$$