
 OpenBabel11222001533D

 54 62  0  0  1  0  0  0  0  0999 V2000
    2.2720    0.3546   -4.5441 O   0  0  0  0  0  0  0  0  0  0  0  0
    3.3474    0.3773   -3.6948 C   0  0  0  0  0  0  0  0  0  0  0  0
    3.6160   -0.6052   -2.8256 C   0  0  0  0  0  0  0  0  0  0  0  0
    2.8058   -1.7264   -2.7127 O   0  0  0  0  0  0  0  0  0  0  0  0
    3.4796   -2.8855   -2.2129 C   0  0  2  0  0  0  0  0  0  0  0  0
    2.5878   -4.0191   -2.1812 O   0  0  0  0  0  0  0  0  0  0  0  0
    2.4885   -4.8283   -3.3080 C   0  0  0  0  0  0  0  0  0  0  0  0
    2.1472   -6.1346   -3.2084 C   0  0  0  0  0  0  0  0  0  0  0  0
    2.0356   -6.9812   -4.3158 O   0  0  0  0  0  0  0  0  0  0  0  0
    2.3599   -6.5052   -5.5833 C   0  0  0  0  0  0  0  0  0  0  0  0
    2.6751   -5.2136   -5.7848 C   0  0  0  0  0  0  0  0  0  0  0  0
    2.7066   -4.2111   -4.6652 C   0  0  0  0  0  0  0  0  0  0  0  0
    3.0574   -4.6903   -7.1382 C   0  0  3  0  0  0  0  0  0  0  0  0
    4.4055   -4.2654   -7.0573 O   0  0  0  0  0  0  0  0  0  0  0  0
    4.9650   -3.7531   -8.1860 C   0  0  0  0  0  0  0  0  0  0  0  0
    5.9935   -3.1073   -8.1566 O   0  0  0  0  0  0  0  0  0  0  0  0
    4.2864   -4.0061   -9.3321 O   0  0  0  0  0  0  0  0  0  0  0  0
    3.4535   -5.1527   -9.4787 C   0  0  3  0  0  0  0  0  0  0  0  0
    3.0379   -5.7454   -8.1774 C   0  0  0  0  0  0  0  0  0  0  0  0
    2.7054   -7.0306   -7.9131 C   0  0  0  0  0  0  0  0  0  0  0  0
    2.3567   -7.4092   -6.6207 O   0  3  0  0  0  0  0  0  0  0  0  0
    2.6452   -8.1074   -8.9343 C   0  0  0  0  0  0  0  0  0  0  0  0
    2.2822   -9.4486   -8.5550 O   0  0  0  0  0  0  0  0  0  0  0  0
    1.3860   -8.6528   -9.3523 O   0  0  0  0  0  0  0  0  0  0  0  0
    2.2533   -4.7511  -10.1056 O   0  0  0  0  0  0  0  0  0  0  0  0
    1.8743   -6.8074   -1.9157 C   0  0  0  0  0  0  0  0  0  0  0  0
    2.9730   -7.3495   -1.3420 N   0  0  0  0  0  0  0  0  0  0  0  0
    2.8090   -7.9402   -0.1389 C   0  0  0  0  0  0  0  0  0  0  0  0
    3.8949   -8.4692    0.4407 F   0  0  0  0  0  0  0  0  0  0  0  0
    1.5989   -8.0497    0.5171 C   0  0  0  0  0  0  0  0  0  0  0  0
    0.4557   -7.5259   -0.0916 C   0  0  0  0  0  0  0  0  0  0  0  0
    0.5730   -6.9033   -1.3567 C   0  0  0  0  0  0  0  0  0  0  0  0
   -0.6134   -6.4449   -1.9781 C   0  0  0  0  0  0  0  0  0  0  0  0
   -1.8608   -6.5851   -1.3526 C   0  0  0  0  0  0  0  0  0  0  0  0
   -3.1120   -6.2391   -2.0386 C   0  0  0  0  0  0  0  0  0  0  0  0
   -3.2643   -6.1014   -3.3198 N   0  0  0  0  0  0  0  0  0  0  0  0
   -4.3323   -6.0720   -1.1766 C   0  0  0  0  0  0  0  0  0  0  0  0
   -5.4822   -5.8266   -1.7270 N   0  0  0  0  0  0  0  0  0  0  0  0
   -4.0989   -6.1333    0.3111 C   0  0  1  0  0  0  0  0  0  0  0  0
   -3.1235   -7.1426    0.6478 O   0  0  0  0  0  0  0  0  0  0  0  0
   -1.9528   -7.0903   -0.0609 C   0  0  0  0  0  0  0  0  0  0  0  0
   -0.8017   -7.5971    0.5395 C   0  0  0  0  0  0  0  0  0  0  0  0
   -0.8938   -8.1609    1.7554 F   0  0  0  0  0  0  0  0  0  0  0  0
   -3.7304   -4.7932    0.9152 C   0  0  1  0  0  0  0  0  0  0  0  0
   -3.4975   -4.7819    2.3353 O   0  0  0  0  0  0  0  0  0  0  0  0
   -2.8185   -3.9993    0.1507 O   0  0  0  0  0  0  0  0  0  0  0  0
   -4.1423   -3.4652    0.3015 C   0  0  3  0  0  0  0  0  0  0  0  0
   -4.2274   -2.3435    1.1951 O   0  0  0  0  0  0  0  0  0  0  0  0
    4.0517   -2.6381   -0.8185 C   0  0  0  0  0  0  0  0  0  0  0  0
    4.0616   -3.4373    0.1050 O   0  0  0  0  0  0  0  0  0  0  0  0
    4.7423   -1.2968   -0.7083 C   0  0  0  0  0  0  0  0  0  0  0  0
    5.2283   -0.9140    0.3420 O   0  0  0  0  0  0  0  0  0  0  0  0
    4.7982   -0.4244   -1.9410 C   0  0  0  0  0  0  0  0  0  0  0  0
    5.7510    0.2905   -2.1942 O   0  0  0  0  0  0  0  0  0  0  0  0
  1  2  1  0  0  0  0
  2  3  2  0  0  0  0
  3  4  1  0  0  0  0
  3 53  1  0  0  0  0
  4  5  1  0  0  0  0
  5  6  1  1  0  0  0
  5 49  1  0  0  0  0
  6  7  1  0  0  0  0
  7  8  2  0  0  0  0
  7 12  1  0  0  0  0
  8  9  1  0  0  0  0
  8 26  1  0  0  0  0
  9 10  1  0  0  0  0
 10 11  2  0  0  0  0
 10 21  1  0  0  0  0
 11 12  1  0  0  0  0
 11 13  1  0  0  0  0
 13 14  1  0  0  0  0
 13 19  1  0  0  0  0
 14 15  1  0  0  0  0
 15 16  2  0  0  0  0
 15 17  1  0  0  0  0
 17 18  1  0  0  0  0
 18 19  1  0  0  0  0
 18 25  1  0  0  0  0
 19 20  2  0  0  0  0
 20 21  1  0  0  0  0
 20 22  1  0  0  0  0
 22 23  1  0  0  0  0
 22 24  1  0  0  0  0
 23 24  1  0  0  0  0
 26 27  2  0  0  0  0
 26 32  1  0  0  0  0
 27 28  1  0  0  0  0
 28 29  1  0  0  0  0
 28 30  2  0  0  0  0
 30 31  1  0  0  0  0
 31 32  2  0  0  0  0
 31 42  1  0  0  0  0
 32 33  1  0  0  0  0
 33 34  2  0  0  0  0
 34 35  1  0  0  0  0
 34 41  1  0  0  0  0
 35 36  2  0  0  0  0
 35 37  1  0  0  0  0
 37 38  2  0  0  0  0
 39 37  1  6  0  0  0
 39 40  1  0  0  0  0
 39 44  1  0  0  0  0
 40 41  1  0  0  0  0
 41 42  2  0  0  0  0
 42 43  1  0  0  0  0
 44 45  1  1  0  0  0
 44 46  1  0  0  0  0
 44 47  1  0  0  0  0
 46 47  1  0  0  0  0
 47 48  1  0  0  0  0
 49 50  2  0  0  0  0
 49 51  1  0  0  0  0
 51 52  2  0  0  0  0
 51 53  1  0  0  0  0
 53 54  2  0  0  0  0
M  CHG  1  21   1
M  END
$$$$