
 OpenBabel11222017553D

 55 63  0  0  1  0  0  0  0  0999 V2000
   -1.6124   -1.4334   -4.2606 O   0  0  0  0  0  0  0  0  0  0  0  0
   -1.1390   -0.6620   -3.2283 C   0  0  0  0  0  0  0  0  0  0  0  0
   -0.1192   -1.0437   -2.4488 C   0  0  0  0  0  0  0  0  0  0  0  0
    0.4675   -2.2861   -2.6360 O   0  0  0  0  0  0  0  0  0  0  0  0
    1.8079   -2.4395   -2.1873 C   0  0  2  0  0  0  0  0  0  0  0  0
    2.2293   -3.8209   -2.3195 O   0  0  0  0  0  0  0  0  0  0  0  0
    2.2273   -4.3640   -3.5997 C   0  0  0  0  0  0  0  0  0  0  0  0
    2.0235   -5.6847   -3.7968 C   0  0  0  0  0  0  0  0  0  0  0  0
    2.0286   -6.2756   -5.0653 O   0  0  0  0  0  0  0  0  0  0  0  0
    2.3496   -5.5005   -6.1879 C   0  0  0  0  0  0  0  0  0  0  0  0
    2.6326   -4.1902   -6.0700 C   0  0  0  0  0  0  0  0  0  0  0  0
    2.5391   -3.4598   -4.7642 C   0  0  0  0  0  0  0  0  0  0  0  0
    3.0403   -3.3467   -7.2466 C   0  0  3  0  0  0  0  0  0  0  0  0
    4.3800   -2.9473   -7.0198 O   0  0  0  0  0  0  0  0  0  0  0  0
    5.0341   -2.2726   -8.0037 C   0  0  0  0  0  0  0  0  0  0  0  0
    6.0833   -1.6934   -7.7764 O   0  0  0  0  0  0  0  0  0  0  0  0
    4.4852   -2.3268   -9.2407 O   0  0  0  0  0  0  0  0  0  0  0  0
    3.4392   -3.2154   -9.6189 C   0  0  3  0  0  0  0  0  0  0  0  0
    3.0423   -4.1178   -8.5069 C   0  0  0  0  0  0  0  0  0  0  0  0
    2.7213   -5.4285   -8.5703 C   0  0  0  0  0  0  0  0  0  0  0  0
    2.3809   -6.1250   -7.4175 O   0  3  0  0  0  0  0  0  0  0  0  0
    2.6628   -6.1965   -9.8345 C   0  0  0  0  0  0  0  0  0  0  0  0
    1.7652   -7.3122   -9.9616 O   0  0  0  0  0  0  0  0  0  0  0  0
    1.5309   -6.1008  -10.7062 O   0  0  0  0  0  0  0  0  0  0  0  0
    2.2860   -2.4649   -9.9322 O   0  0  0  0  0  0  0  0  0  0  0  0
    1.8013   -6.6260   -2.6733 C   0  0  0  0  0  0  0  0  0  0  0  0
    2.9123   -7.2201   -2.0763 C   0  0  0  0  0  0  0  0  0  0  0  0
    2.7683   -8.0527   -1.0382 N   0  3  0  0  0  0  0  0  0  0  0  0
    3.8603   -8.6313   -0.5015 F   0  0  0  0  0  0  0  0  0  0  0  0
    1.5906   -8.3407   -0.5184 N   0  0  0  0  0  0  0  0  0  0  0  0
    0.4865   -7.7830   -1.0239 C   0  0  0  0  0  0  0  0  0  0  0  0
    0.5304   -6.9159   -2.1319 C   0  0  0  0  0  0  0  0  0  0  0  0
   -0.6897   -6.3945   -2.6253 C   0  0  0  0  0  0  0  0  0  0  0  0
   -1.9151   -6.7008   -2.0086 C   0  0  0  0  0  0  0  0  0  0  0  0
   -3.1676   -6.1986   -2.5743 C   0  0  0  0  0  0  0  0  0  0  0  0
   -3.1623   -5.6292   -3.6537 O   0  0  0  0  0  0  0  0  0  0  0  0
   -4.4401   -6.4284   -1.7872 C   0  0  0  0  0  0  0  0  0  0  0  0
   -5.5162   -6.0814   -2.2483 O   0  0  0  0  0  0  0  0  0  0  0  0
   -4.2569   -7.0255   -0.4050 C   0  0  1  0  0  0  0  0  0  0  0  0
   -3.0839   -7.8270   -0.2049 O   0  0  0  0  0  0  0  0  0  0  0  0
   -1.9517   -7.5066   -0.8898 C   0  0  0  0  0  0  0  0  0  0  0  0
   -0.7504   -8.0579   -0.4355 C   0  0  0  0  0  0  0  0  0  0  0  0
   -0.7832   -8.8820    0.6240 F   0  0  0  0  0  0  0  0  0  0  0  0
   -4.3718   -5.9910    0.6854 C   0  0  1  0  0  0  0  0  0  0  0  0
   -3.4328   -4.9180    0.6874 C   0  0  0  0  0  0  0  0  0  0  0  0
   -2.6027   -4.1201    0.5834 N   0  0  0  0  0  0  0  0  0  0  0  0
   -5.7150   -5.5933    1.0194 O   0  0  0  0  0  0  0  0  0  0  0  0
   -5.0422   -6.3180    1.9229 C   0  0  0  0  0  0  0  0  0  0  0  0
   -5.2797   -7.3848    2.4445 O   0  0  0  0  0  0  0  0  0  0  0  0
    1.9416   -2.0154   -0.7386 C   0  0  0  0  0  0  0  0  0  0  0  0
    2.3851   -2.6972    0.1718 O   0  0  0  0  0  0  0  0  0  0  0  0
    1.4811   -0.5969   -0.5446 C   0  0  0  0  0  0  0  0  0  0  0  0
    2.1299    0.1571    0.1595 O   0  0  0  0  0  0  0  0  0  0  0  0
    0.3023   -0.1081   -1.3606 C   0  0  0  0  0  0  0  0  0  0  0  0
   -0.2215    0.9716   -1.1484 O   0  0  0  0  0  0  0  0  0  0  0  0
  1  2  1  0  0  0  0
  2  3  2  0  0  0  0
  3  4  1  0  0  0  0
  3 54  1  0  0  0  0
  4  5  1  0  0  0  0
  5  6  1  1  0  0  0
  5 50  1  0  0  0  0
  6  7  1  0  0  0  0
  7  8  2  0  0  0  0
  7 12  1  0  0  0  0
  8  9  1  0  0  0  0
  8 26  1  0  0  0  0
  9 10  1  0  0  0  0
 10 11  2  0  0  0  0
 10 21  1  0  0  0  0
 11 12  1  0  0  0  0
 11 13  1  0  0  0  0
 13 14  1  0  0  0  0
 13 19  1  0  0  0  0
 14 15  1  0  0  0  0
 15 16  2  0  0  0  0
 15 17  1  0  0  0  0
 17 18  1  0  0  0  0
 18 19  1  0  0  0  0
 18 25  1  0  0  0  0
 19 20  2  0  0  0  0
 20 21  1  0  0  0  0
 20 22  1  0  0  0  0
 22 23  1  0  0  0  0
 22 24  1  0  0  0  0
 23 24  1  0  0  0  0
 26 27  2  0  0  0  0
 26 32  1  0  0  0  0
 27 28  1  0  0  0  0
 28 29  1  0  0  0  0
 28 30  2  0  0  0  0
 30 31  1  0  0  0  0
 31 32  2  0  0  0  0
 31 42  1  0  0  0  0
 32 33  1  0  0  0  0
 33 34  2  0  0  0  0
 34 35  1  0  0  0  0
 34 41  1  0  0  0  0
 35 36  2  0  0  0  0
 35 37  1  0  0  0  0
 37 38  2  0  0  0  0
 39 37  1  6  0  0  0
 39 40  1  0  0  0  0
 39 44  1  0  0  0  0
 40 41  1  0  0  0  0
 41 42  2  0  0  0  0
 42 43  1  0  0  0  0
 44 45  1  1  0  0  0
 44 47  1  0  0  0  0
 44 48  1  0  0  0  0
 45 46  3  0  0  0  0
 47 48  1  0  0  0  0
 48 49  2  0  0  0  0
 50 51  2  0  0  0  0
 50 52  1  0  0  0  0
 52 53  2  0  0  0  0
 52 54  1  0  0  0  0
 54 55  2  0  0  0  0
M  CHG  2  21   1  28   1
M  END
$$$$