
 OpenBabel09222003513D

 50 58  0  0  1  0  0  0  0  0999 V2000
    1.7708    0.3820    0.8248 O   0  0  0  0  0  0  0  0  0  0  0  0
    2.7022    0.1000    0.0783 C   0  0  0  0  0  0  0  0  0  0  0  0
    3.0235   -1.1841   -0.1936 N   0  0  0  0  0  0  0  0  0  0  0  0
    4.0744   -1.6080   -1.0848 C   0  0  0  0  0  0  0  0  0  0  0  0
    4.8755   -0.4844   -1.6541 C   0  0  0  0  0  0  0  0  0  0  0  0
    4.5418    0.8377   -1.3537 C   0  0  0  0  0  0  0  0  0  0  0  0
    3.4511    1.0704   -0.5068 N   0  0  0  0  0  0  0  0  0  0  0  0
    5.2784    1.8989   -1.8886 C   0  0  0  0  0  0  0  0  0  0  0  0
    4.9329    3.3438   -1.6543 C   0  0  0  0  0  0  0  0  0  0  0  0
    5.8132    4.3044   -2.4063 C   0  0  0  0  0  0  0  0  0  0  0  0
    6.8564    3.8374   -3.1192 C   0  0  0  0  0  0  0  0  0  0  0  0
    7.1772    2.5023   -3.2604 O   0  0  0  0  0  0  0  0  0  0  0  0
    6.3624    1.5575   -2.6855 C   0  0  0  0  0  0  0  0  0  0  0  0
    6.7129    0.2864   -2.9821 N   0  0  0  0  0  0  0  0  0  0  0  0
    5.9636   -0.7079   -2.4875 C   0  0  0  0  0  0  0  0  0  0  0  0
    6.3559   -1.9911   -2.8649 N   0  0  0  0  0  0  0  0  0  0  0  0
    7.7887    4.7387   -3.8143 C   0  0  0  0  0  0  0  0  0  0  0  0
    7.4228    5.0390   -5.0862 N   0  0  0  0  0  0  0  0  0  0  0  0
    8.2043    5.9030   -5.7599 C   0  0  0  0  0  0  0  0  0  0  0  0
    9.3429    6.4867   -5.2316 C   0  0  0  0  0  0  0  0  0  0  0  0
    9.7259    6.1677   -3.9244 C   0  0  0  0  0  0  0  0  0  0  0  0
    8.9413    5.2602   -3.1798 C   0  0  0  0  0  0  0  0  0  0  0  0
    9.3571    4.9379   -1.8662 C   0  0  0  0  0  0  0  0  0  0  0  0
   10.5030    5.5185   -1.3113 C   0  0  0  0  0  0  0  0  0  0  0  0
   11.2517    6.4327   -2.0370 C   0  0  0  0  0  0  0  0  0  0  0  0
   10.8737    6.7414   -3.3446 C   0  0  0  0  0  0  0  0  0  0  0  0
   12.3804    7.0430   -1.5747 O   0  0  0  0  0  0  0  0  0  0  0  0
   12.5251    7.1241   -0.1540 C   0  0  2  0  0  0  0  0  0  0  0  0
   12.0900    5.9121    0.6320 C   0  0  0  0  0  0  0  0  0  0  0  0
   12.5275    5.6376    1.7417 O   0  0  0  0  0  0  0  0  0  0  0  0
   10.9252    5.1531    0.0440 C   0  0  0  0  0  0  0  0  0  0  0  0
   10.3426    4.3035    0.6993 O   0  0  0  0  0  0  0  0  0  0  0  0
   11.9128    8.3927    0.3657 C   0  0  1  0  0  0  0  0  0  0  0  0
   12.4585    9.6218   -0.1734 O   0  0  0  0  0  0  0  0  0  0  0  0
   10.4939    8.3537    0.5176 O   0  0  0  0  0  0  0  0  0  0  0  0
   11.2133    8.5342    1.6477 C   0  0  0  0  0  0  0  0  0  0  0  0
   11.1864    9.4627    2.4234 O   0  0  0  0  0  0  0  0  0  0  0  0
    5.6168    5.6723   -2.2867 O   0  0  0  0  0  0  0  0  0  0  0  0
    4.2923    6.1806   -2.1686 C   0  0  1  0  0  0  0  0  0  0  0  0
    3.9910    6.3782   -0.7885 O   0  0  0  0  0  0  0  0  0  0  0  0
    2.6335    6.7266   -0.5215 C   0  0  1  0  0  0  0  0  0  0  0  0
    2.5358    7.1931    0.9000 C   0  0  0  0  0  0  0  0  0  0  0  0
    2.8588    6.2102    1.8855 O   0  0  0  0  0  0  0  0  0  0  0  0
    1.4851    6.6078    1.6674 O   0  0  0  0  0  0  0  0  0  0  0  0
    2.0754    7.7928   -1.4450 C   0  0  0  0  0  0  0  0  0  0  0  0
    0.9052    8.1397   -1.4803 O   0  0  0  0  0  0  0  0  0  0  0  0
    3.0935    8.3913   -2.3818 C   0  0  0  0  0  0  0  0  0  0  0  0
    2.9939    9.5608   -2.7163 O   0  0  0  0  0  0  0  0  0  0  0  0
    4.2224    7.5264   -2.8869 C   0  0  0  0  0  0  0  0  0  0  0  0
    4.9258    7.9001   -3.8127 O   0  0  0  0  0  0  0  0  0  0  0  0
  1  2  2  0  0  0  0
  2  3  1  0  0  0  0
  2  7  1  0  0  0  0
  3  4  1  0  0  0  0
  4  5  1  0  0  0  0
  5  6  2  0  0  0  0
  5 15  1  0  0  0  0
  6  7  1  0  0  0  0
  6  8  1  0  0  0  0
  8  9  1  0  0  0  0
  8 13  2  0  0  0  0
  9 10  1  0  0  0  0
 10 11  2  0  0  0  0
 10 38  1  0  0  0  0
 11 12  1  0  0  0  0
 11 17  1  0  0  0  0
 12 13  1  0  0  0  0
 13 14  1  0  0  0  0
 14 15  2  0  0  0  0
 15 16  1  0  0  0  0
 17 18  2  0  0  0  0
 17 22  1  0  0  0  0
 18 19  1  0  0  0  0
 19 20  2  0  0  0  0
 20 21  1  0  0  0  0
 21 22  2  0  0  0  0
 21 26  1  0  0  0  0
 22 23  1  0  0  0  0
 23 24  2  0  0  0  0
 24 25  1  0  0  0  0
 24 31  1  0  0  0  0
 25 26  2  0  0  0  0
 25 27  1  0  0  0  0
 28 27  1  6  0  0  0
 28 29  1  0  0  0  0
 28 33  1  0  0  0  0
 29 30  2  0  0  0  0
 29 31  1  0  0  0  0
 31 32  2  0  0  0  0
 33 34  1  6  0  0  0
 33 35  1  0  0  0  0
 33 36  1  0  0  0  0
 35 36  1  0  0  0  0
 36 37  2  0  0  0  0
 39 38  1  1  0  0  0
 39 40  1  0  0  0  0
 39 49  1  0  0  0  0
 40 41  1  0  0  0  0
 41 45  1  0  0  0  0
 41 42  1  1  0  0  0
 42 43  1  0  0  0  0
 42 44  1  0  0  0  0
 43 44  1  0  0  0  0
 45 46  2  0  0  0  0
 45 47  1  0  0  0  0
 47 48  2  0  0  0  0
 47 49  1  0  0  0  0
 49 50  2  0  0  0  0
M  END
$$$$