
 OpenBabel11242001263D

 54 62  0  0  1  0  0  0  0  0999 V2000
    7.1577    5.0777   -3.2864 O   0  0  0  0  0  0  0  0  0  0  0  0
    7.1215    3.7617   -2.8977 C   0  0  0  0  0  0  0  0  0  0  0  0
    5.9896    3.1497   -2.5298 C   0  0  0  0  0  0  0  0  0  0  0  0
    4.8015    3.8448   -2.4256 O   0  0  0  0  0  0  0  0  0  0  0  0
    3.6693    3.1444   -2.9315 C   0  0  2  0  0  0  0  0  0  0  0  0
    2.4625    3.9456   -2.8919 O   0  0  0  0  0  0  0  0  0  0  0  0
    2.5449    5.2944   -3.2134 C   0  0  0  0  0  0  0  0  0  0  0  0
    1.6948    6.1849   -2.6576 C   0  0  0  0  0  0  0  0  0  0  0  0
    1.6928    7.5378   -2.9389 O   0  0  0  0  0  0  0  0  0  0  0  0
    2.6363    8.0423   -3.8027 C   0  0  0  0  0  0  0  0  0  0  0  0
    3.5281    7.2328   -4.4704 C   0  0  0  0  0  0  0  0  0  0  0  0
    3.5514    5.7566   -4.2449 C   0  0  0  0  0  0  0  0  0  0  0  0
    4.4327    7.8715   -5.3117 C   0  0  0  0  0  0  0  0  0  0  0  0
    5.3779    7.0891   -5.9882 O   0  0  0  0  0  0  0  0  0  0  0  0
    6.1246    7.6309   -7.0167 C   0  0  0  0  0  0  0  0  0  0  0  0
    6.8769    6.8767   -7.7323 N   0  0  0  0  0  0  0  0  0  0  0  0
    6.0059    8.9418   -7.2936 O   0  0  0  0  0  0  0  0  0  0  0  0
    5.5207    9.8400   -6.3039 C   0  0  3  0  0  0  0  0  0  0  0  0
    4.4502    9.2470   -5.4582 C   0  0  0  0  0  0  0  0  0  0  0  0
    3.5239   10.0006   -4.7324 C   0  0  0  0  0  0  0  0  0  0  0  0
    2.6126    9.3828   -3.9253 N   0  0  0  0  0  0  0  0  0  0  0  0
    3.5037   11.5101   -4.7950 C   0  0  0  0  0  0  0  0  0  0  0  0
    2.7195   12.1070   -5.8387 O   0  0  0  0  0  0  0  0  0  0  0  0
    2.2790   12.1853   -4.4681 O   0  0  0  0  0  0  0  0  0  0  0  0
    6.5819   10.2307   -5.4504 O   0  0  0  0  0  0  0  0  0  0  0  0
    0.6297    5.8149   -1.7076 C   0  0  0  0  0  0  0  0  0  0  0  0
   -0.6210    5.5049   -2.2260 C   0  0  0  0  0  0  0  0  0  0  0  0
   -1.6255    5.1609   -1.4150 N   0  3  0  0  0  0  0  0  0  0  0  0
   -2.8392    4.9140   -1.9439 F   0  0  0  0  0  0  0  0  0  0  0  0
   -1.4776    5.0457   -0.1075 N   0  0  0  0  0  0  0  0  0  0  0  0
   -0.2943    5.3276    0.4516 C   0  0  0  0  0  0  0  0  0  0  0  0
    0.7989    5.7756   -0.3105 C   0  0  0  0  0  0  0  0  0  0  0  0
    1.9840    6.1609    0.3603 C   0  0  0  0  0  0  0  0  0  0  0  0
    2.1109    5.9960    1.7463 C   0  0  0  0  0  0  0  0  0  0  0  0
    3.3282    6.4255    2.4380 C   0  0  0  0  0  0  0  0  0  0  0  0
    4.1168    7.1805    1.8939 O   0  0  0  0  0  0  0  0  0  0  0  0
    3.5523    5.9013    3.8385 C   0  0  0  0  0  0  0  0  0  0  0  0
    4.5911    6.1457    4.4349 O   0  0  0  0  0  0  0  0  0  0  0  0
    2.4630    4.9861    4.3593 C   0  0  1  0  0  0  0  0  0  0  0  0
    1.1494    5.1988    3.8225 O   0  0  0  0  0  0  0  0  0  0  0  0
    1.0777    5.4481    2.4819 C   0  0  0  0  0  0  0  0  0  0  0  0
   -0.1245    5.1676    1.8290 C   0  0  0  0  0  0  0  0  0  0  0  0
   -1.1573    4.7028    2.5520 F   0  0  0  0  0  0  0  0  0  0  0  0
    2.8639    3.5517    4.1981 C   0  0  1  0  0  0  0  0  0  0  0  0
    3.1137    3.0986    2.8404 O   0  0  0  0  0  0  0  0  0  0  0  0
    3.7619    3.0635    5.1918 O   0  0  0  0  0  0  0  0  0  0  0  0
    2.5372    2.5000    5.1632 C   0  0  0  0  0  0  0  0  0  0  0  0
    2.2201    1.3500    4.9610 O   0  0  0  0  0  0  0  0  0  0  0  0
    3.4278    1.9261   -2.0518 C   0  0  0  0  0  0  0  0  0  0  0  0
    2.3354    1.5681   -1.6294 O   0  0  0  0  0  0  0  0  0  0  0  0
    4.6966    1.1698   -1.7065 C   0  0  0  0  0  0  0  0  0  0  0  0
    4.6371    0.1514   -1.0369 O   0  0  0  0  0  0  0  0  0  0  0  0
    6.0355    1.7078   -2.1709 C   0  0  0  0  0  0  0  0  0  0  0  0
    7.0231    1.0027   -2.2713 O   0  0  0  0  0  0  0  0  0  0  0  0
  1  2  1  0  0  0  0
  2  3  2  0  0  0  0
  3  4  1  0  0  0  0
  3 53  1  0  0  0  0
  4  5  1  0  0  0  0
  5  6  1  1  0  0  0
  5 49  1  0  0  0  0
  6  7  1  0  0  0  0
  7  8  2  0  0  0  0
  7 12  1  0  0  0  0
  8  9  1  0  0  0  0
  8 26  1  0  0  0  0
  9 10  1  0  0  0  0
 10 11  2  0  0  0  0
 10 21  1  0  0  0  0
 11 12  1  0  0  0  0
 11 13  1  0  0  0  0
 13 14  1  0  0  0  0
 13 19  2  0  0  0  0
 14 15  1  0  0  0  0
 15 16  2  0  0  0  0
 15 17  1  0  0  0  0
 17 18  1  0  0  0  0
 18 19  1  0  0  0  0
 18 25  1  0  0  0  0
 19 20  1  0  0  0  0
 20 21  2  0  0  0  0
 20 22  1  0  0  0  0
 22 23  1  0  0  0  0
 22 24  1  0  0  0  0
 23 24  1  0  0  0  0
 26 27  2  0  0  0  0
 26 32  1  0  0  0  0
 27 28  1  0  0  0  0
 28 29  1  0  0  0  0
 28 30  2  0  0  0  0
 30 31  1  0  0  0  0
 31 32  2  0  0  0  0
 31 42  1  0  0  0  0
 32 33  1  0  0  0  0
 33 34  2  0  0  0  0
 34 35  1  0  0  0  0
 34 41  1  0  0  0  0
 35 36  2  0  0  0  0
 35 37  1  0  0  0  0
 37 38  2  0  0  0  0
 39 37  1  6  0  0  0
 39 40  1  0  0  0  0
 39 44  1  0  0  0  0
 40 41  1  0  0  0  0
 41 42  2  0  0  0  0
 42 43  1  0  0  0  0
 44 45  1  6  0  0  0
 44 46  1  0  0  0  0
 44 47  1  0  0  0  0
 46 47  1  0  0  0  0
 47 48  2  0  0  0  0
 49 50  2  0  0  0  0
 49 51  1  0  0  0  0
 51 52  2  0  0  0  0
 51 53  1  0  0  0  0
 53 54  2  0  0  0  0
M  CHG  1  28   1
M  END
$$$$