
 OpenBabel09232009253D

 51 59  0  0  1  0  0  0  0  0999 V2000
    5.9714   -7.0435    1.9190 F   0  0  0  0  0  0  0  0  0  0  0  0
    5.1742   -6.4489    2.8262 C   0  0  0  0  0  0  0  0  0  0  0  0
    4.2483   -5.5599    2.4628 C   0  0  0  0  0  0  0  0  0  0  0  0
    4.0943   -5.2030    1.1358 O   0  0  0  0  0  0  0  0  0  0  0  0
    2.7633   -4.8258    0.7756 C   0  0  2  0  0  0  0  0  0  0  0  0
    2.6616   -4.5608   -0.6245 O   0  0  0  0  0  0  0  0  0  0  0  0
    2.9802   -5.6043   -1.4857 C   0  0  0  0  0  0  0  0  0  0  0  0
    3.4960   -5.3586   -2.7049 C   0  0  0  0  0  0  0  0  0  0  0  0
    3.8365   -6.3429   -3.6169 O   0  0  0  0  0  0  0  0  0  0  0  0
    3.4661   -7.6433   -3.3638 C   0  0  0  0  0  0  0  0  0  0  0  0
    2.8450   -8.0184   -2.1852 C   0  0  0  0  0  0  0  0  0  0  0  0
    2.6461   -7.0165   -1.0899 C   0  0  0  0  0  0  0  0  0  0  0  0
    2.4613   -9.3554   -2.0749 C   0  0  0  0  0  0  0  0  0  0  0  0
    1.8180   -9.8314   -0.9244 N   0  0  0  0  0  0  0  0  0  0  0  0
    1.5074  -11.1346   -0.6934 C   0  0  0  0  0  0  0  0  0  0  0  0
    0.9824  -11.4868    0.3570 O   0  0  0  0  0  0  0  0  0  0  0  0
    1.8370  -12.0263   -1.6575 N   0  0  0  0  0  0  0  0  0  0  0  0
    2.1764  -11.6524   -3.0057 C   0  0  0  0  0  0  0  0  0  0  0  0
    2.7054  -10.2553   -3.1154 C   0  0  0  0  0  0  0  0  0  0  0  0
    3.3595   -9.7994   -4.2656 C   0  0  0  0  0  0  0  0  0  0  0  0
    3.7469   -8.5010   -4.3681 N   0  0  0  0  0  0  0  0  0  0  0  0
    3.6829  -10.7173   -5.4197 C   0  0  0  0  0  0  0  0  0  0  0  0
    2.5923  -11.3834   -6.0765 O   0  0  0  0  0  0  0  0  0  0  0  0
    3.2850  -10.3065   -6.7363 O   0  0  0  0  0  0  0  0  0  0  0  0
    3.7132   -3.9955   -3.2156 C   0  0  0  0  0  0  0  0  0  0  0  0
    2.6634   -3.5001   -3.9062 N   0  0  0  0  0  0  0  0  0  0  0  0
    2.8222   -2.2763   -4.4129 C   0  0  0  0  0  0  0  0  0  0  0  0
    3.9195   -1.5162   -4.3034 N   0  0  0  0  0  0  0  0  0  0  0  0
    4.9499   -2.0270   -3.6237 C   0  0  0  0  0  0  0  0  0  0  0  0
    4.9151   -3.2964   -3.0311 C   0  0  0  0  0  0  0  0  0  0  0  0
    6.0527   -3.7724   -2.3334 C   0  0  0  0  0  0  0  0  0  0  0  0
    7.2088   -2.9907   -2.2535 C   0  0  0  0  0  0  0  0  0  0  0  0
    7.2465   -1.7383   -2.8416 C   0  0  0  0  0  0  0  0  0  0  0  0
    6.1127   -1.2714   -3.5136 C   0  0  0  0  0  0  0  0  0  0  0  0
    8.3227   -0.9049   -2.8497 O   0  0  0  0  0  0  0  0  0  0  0  0
    9.4621   -1.2484   -2.0616 C   0  0  2  0  0  0  0  0  0  0  0  0
    9.6588   -2.6952   -1.6860 C   0  0  0  0  0  0  0  0  0  0  0  0
   10.7431   -3.1690   -1.3766 O   0  0  0  0  0  0  0  0  0  0  0  0
    8.3930   -3.5038   -1.5660 C   0  0  0  0  0  0  0  0  0  0  0  0
    8.3657   -4.5289   -0.9048 O   0  0  0  0  0  0  0  0  0  0  0  0
    9.5312   -0.3413   -0.8735 C   0  0  3  0  0  0  0  0  0  0  0  0
    9.4718    1.0224   -1.1515 F   0  0  0  0  0  0  0  0  0  0  0  0
    8.7459   -0.7959    0.2482 O   0  0  0  0  0  0  0  0  0  0  0  0
   10.0729   -0.6945    0.4190 C   0  0  0  0  0  0  0  0  0  0  0  0
   10.7215   -0.1132    1.2604 O   0  0  0  0  0  0  0  0  0  0  0  0
    2.3715   -3.5951    1.5760 C   0  0  0  0  0  0  0  0  0  0  0  0
    1.9741   -2.5276    1.1385 O   0  0  0  0  0  0  0  0  0  0  0  0
    2.5076   -3.8348    3.0588 C   0  0  0  0  0  0  0  0  0  0  0  0
    1.8656   -3.1701    3.8552 O   0  0  0  0  0  0  0  0  0  0  0  0
    3.4115   -4.9562    3.5352 C   0  0  0  0  0  0  0  0  0  0  0  0
    3.4030   -5.3453    4.6905 O   0  0  0  0  0  0  0  0  0  0  0  0
  1  2  1  0  0  0  0
  2  3  2  0  0  0  0
  3  4  1  0  0  0  0
  3 50  1  0  0  0  0
  4  5  1  0  0  0  0
  5  6  1  6  0  0  0
  5 46  1  0  0  0  0
  6  7  1  0  0  0  0
  7  8  2  0  0  0  0
  7 12  1  0  0  0  0
  8  9  1  0  0  0  0
  8 25  1  0  0  0  0
  9 10  1  0  0  0  0
 10 11  2  0  0  0  0
 10 21  1  0  0  0  0
 11 12  1  0  0  0  0
 11 13  1  0  0  0  0
 13 14  1  0  0  0  0
 13 19  2  0  0  0  0
 14 15  1  0  0  0  0
 15 16  2  0  0  0  0
 15 17  1  0  0  0  0
 17 18  1  0  0  0  0
 18 19  1  0  0  0  0
 19 20  1  0  0  0  0
 20 21  2  0  0  0  0
 20 22  1  0  0  0  0
 22 23  1  0  0  0  0
 22 24  1  0  0  0  0
 23 24  1  0  0  0  0
 25 26  2  0  0  0  0
 25 30  1  0  0  0  0
 26 27  1  0  0  0  0
 27 28  2  0  0  0  0
 28 29  1  0  0  0  0
 29 30  2  0  0  0  0
 29 34  1  0  0  0  0
 30 31  1  0  0  0  0
 31 32  2  0  0  0  0
 32 33  1  0  0  0  0
 32 39  1  0  0  0  0
 33 34  2  0  0  0  0
 33 35  1  0  0  0  0
 36 35  1  1  0  0  0
 36 37  1  0  0  0  0
 36 41  1  0  0  0  0
 37 38  2  0  0  0  0
 37 39  1  0  0  0  0
 39 40  2  0  0  0  0
 41 42  1  0  0  0  0
 41 43  1  0  0  0  0
 41 44  1  0  0  0  0
 43 44  1  0  0  0  0
 44 45  2  0  0  0  0
 46 47  2  0  0  0  0
 46 48  1  0  0  0  0
 48 49  2  0  0  0  0
 48 50  1  0  0  0  0
 50 51  2  0  0  0  0
M  END
$$$$