
 OpenBabel05192111393D

 56 67  0  0  1  0  0  0  0  0999 V2000
    3.6084    2.3459   -1.1586 F   0  0  0  0  0  0  0  0  0  0  0  0
    4.5280    1.5511   -1.7220 C   0  0  0  0  0  0  0  0  0  0  0  0
    5.1677    1.9825   -2.8747 C   0  0  0  0  0  0  0  0  0  0  0  0
    6.1077    1.1466   -3.4527 C   0  0  0  0  0  0  0  0  0  0  0  0
    6.2883   -0.1502   -2.9452 C   0  0  0  0  0  0  0  0  0  0  0  0
    5.6056   -0.6513   -1.8020 C   0  0  0  0  0  0  0  0  0  0  0  0
    4.7878    0.2912   -1.1546 C   0  0  0  0  0  0  0  0  0  0  0  0
    5.7393   -2.0840   -1.3102 C   0  0  0  0  0  0  0  0  0  0  0  0
    4.6413   -2.9253   -0.9084 C   0  0  0  0  0  0  0  0  0  0  0  0
    4.9677   -4.2659   -0.4947 C   0  0  0  0  0  0  0  0  0  0  0  0
    6.2376   -4.8750   -0.4581 C   0  0  0  0  0  0  0  0  0  0  0  0
    7.3064   -4.0671   -0.8571 C   0  0  0  0  0  0  0  0  0  0  0  0
    7.0413   -2.7129   -1.2599 C   0  0  0  0  0  0  0  0  0  0  0  0
    8.2994   -2.0017   -1.6124 C   0  0  0  0  0  0  0  0  0  0  0  0
    8.5562   -0.8857   -1.1672 O   0  0  0  0  0  0  0  0  0  0  0  0
    9.2967   -2.8309   -2.4611 C   0  0  1  0  0  0  0  0  0  0  0  0
    9.7820   -3.8964   -1.4781 C   0  0  2  0  0  0  0  0  0  0  0  0
    8.6095   -4.6414   -0.8673 C   0  0  0  0  0  0  0  0  0  0  0  0
    8.8349   -5.9416   -0.4373 C   0  0  0  0  0  0  0  0  0  0  0  0
    7.7677   -6.7171   -0.0303 C   0  0  0  0  0  0  0  0  0  0  0  0
    6.4374   -6.2441   -0.0426 C   0  0  0  0  0  0  0  0  0  0  0  0
    5.2301   -7.2242    0.4254 C   0  0  0  0  0  0  0  0  0  0  0  0
    5.7970   -8.4225    1.6383 C   0  0  0  0  0  0  0  0  0  0  0  0
    5.4697   -8.9731    0.5498 C   0  0  0  0  0  0  0  0  0  0  0  0
    5.0610   -8.6890   -0.5866 C   0  0  0  0  0  0  0  0  0  0  0  0
   10.0469   -6.5627   -0.4496 O   0  0  0  0  0  0  0  0  0  0  0  0
   11.1010   -5.9728   -1.2232 C   0  0  2  0  0  0  0  0  0  0  0  0
   10.6655   -4.8932   -2.2201 C   0  0  1  0  0  0  0  0  0  0  0  0
    9.8782   -5.4470   -3.3881 C   0  0  0  0  0  0  0  0  0  0  0  0
    8.9390   -4.6278   -4.0236 C   0  0  0  0  0  0  0  0  0  0  0  0
    8.6605   -3.3427   -3.6394 O   0  0  0  0  0  0  0  0  0  0  0  0
    8.1509   -5.1512   -5.0441 C   0  0  0  0  0  0  0  0  0  0  0  0
    8.2855   -6.4900   -5.4195 C   0  0  0  0  0  0  0  0  0  0  0  0
    9.2011   -7.3303   -4.7678 C   0  0  0  0  0  0  0  0  0  0  0  0
   10.0077   -6.8109   -3.7438 C   0  0  0  0  0  0  0  0  0  0  0  0
   10.8789   -7.6946   -3.0801 C   0  0  0  0  0  0  0  0  0  0  0  0
   11.7100   -7.1566   -1.9855 C   0  0  0  0  0  0  0  0  0  0  0  0
   12.7840   -7.6708   -1.6809 O   0  0  0  0  0  0  0  0  0  0  0  0
   10.8951   -9.0682   -3.3512 C   0  0  0  0  0  0  0  0  0  0  0  0
   10.0309   -9.5923   -4.3112 C   0  0  0  0  0  0  0  0  0  0  0  0
    9.2838   -8.6965   -5.0813 C   0  0  0  0  0  0  0  0  0  0  0  0
    9.9895  -11.3685   -4.5449 S   0  3  0  0  0  0  0  0  0  0  0  0
    8.6528  -11.6700   -5.7168 C   0  0  0  0  0  0  0  0  0  0  0  0
    7.2607  -11.2133   -5.3041 C   0  0  0  0  0  0  0  0  0  0  0  0
    6.7861  -11.8588   -4.0173 C   0  0  0  0  0  0  0  0  0  0  0  0
    7.7038  -11.5128   -2.8512 C   0  0  0  0  0  0  0  0  0  0  0  0
    9.1459  -11.9585   -3.0479 C   0  0  0  0  0  0  0  0  0  0  0  0
   12.0751   -5.4247   -0.3375 O   0  0  0  0  0  0  0  0  0  0  0  0
   10.4058   -2.0212   -2.8438 O   0  0  0  0  0  0  0  0  0  0  0  0
    3.0979   -2.5543   -0.8106 C   0  0  0  0  0  0  0  0  0  0  0  0
    2.1973   -3.7668   -0.3564 C   0  0  0  0  0  0  0  0  0  0  0  0
    0.6853   -3.5913   -0.3997 C   0  0  0  0  0  0  0  0  0  0  0  0
    0.2520   -3.1225   -1.7718 C   0  0  0  0  0  0  0  0  0  0  0  0
    0.9374   -1.8006   -2.0651 C   0  0  0  0  0  0  0  0  0  0  0  0
    2.4728   -1.9203   -2.0789 C   0  0  0  0  0  0  0  0  0  0  0  0
    7.1571   -0.9188   -3.6188 F   0  0  0  0  0  0  0  0  0  0  0  0
  1  2  1  0  0  0  0
  2  3  2  0  0  0  0
  2  7  1  0  0  0  0
  3  4  1  0  0  0  0
  4  5  2  0  0  0  0
  5  6  1  0  0  0  0
  5 56  1  0  0  0  0
  6  7  2  0  0  0  0
  6  8  1  0  0  0  0
  8  9  2  0  0  0  0
  8 13  1  0  0  0  0
  9 10  1  0  0  0  0
  9 50  1  0  0  0  0
 10 11  2  0  0  0  0
 11 12  1  0  0  0  0
 11 21  1  0  0  0  0
 12 13  2  0  0  0  0
 12 18  1  0  0  0  0
 13 14  1  0  0  0  0
 14 16  1  0  0  0  0
 14 15  2  0  0  0  0
 16 17  1  0  0  0  0
 16 31  1  0  0  0  0
 16 49  1  6  0  0  0
 17 18  1  1  0  0  0
 17 28  1  0  0  0  0
 18 19  2  0  0  0  0
 19 20  1  0  0  0  0
 19 26  1  0  0  0  0
 20 21  2  0  0  0  0
 21 22  1  0  0  0  0
 22 23  1  0  0  0  0
 22 25  1  0  0  0  0
 23 24  2  0  0  0  0
 24 25  2  0  0  0  0
 26 27  1  0  0  0  0
 27 28  1  0  0  0  0
 27 37  1  0  0  0  0
 27 48  1  1  0  0  0
 28 29  1  6  0  0  0
 29 30  2  0  0  0  0
 29 35  1  0  0  0  0
 30 31  1  0  0  0  0
 30 32  1  0  0  0  0
 32 33  2  0  0  0  0
 33 34  1  0  0  0  0
 34 35  2  0  0  0  0
 34 41  1  0  0  0  0
 35 36  1  0  0  0  0
 36 37  1  0  0  0  0
 36 39  2  0  0  0  0
 37 38  2  0  0  0  0
 39 40  1  0  0  0  0
 40 41  2  0  0  0  0
 40 42  1  0  0  0  0
 42 43  1  0  0  0  0
 42 47  1  0  0  0  0
 43 44  1  0  0  0  0
 44 45  1  0  0  0  0
 45 46  1  0  0  0  0
 46 47  1  0  0  0  0
 50 51  1  0  0  0  0
 50 55  1  0  0  0  0
 51 52  1  0  0  0  0
 52 53  1  0  0  0  0
 53 54  1  0  0  0  0
 54 55  1  0  0  0  0
M  CHG  1  42   1
M  END
$$$$