
 OpenBabel11232000543D

 53 62  0  0  1  0  0  0  0  0999 V2000
   16.0565    3.3223    1.8426 O   0  0  0  0  0  0  0  0  0  0  0  0
   15.1598    2.8730    2.7814 C   0  0  0  0  0  0  0  0  0  0  0  0
   14.2381    1.9369    2.5268 C   0  0  0  0  0  0  0  0  0  0  0  0
   14.1060    1.3705    1.2657 O   0  0  0  0  0  0  0  0  0  0  0  0
   13.9462   -0.0425    1.3530 C   0  0  2  0  0  0  0  0  0  0  0  0
   13.8953   -0.6922    0.0639 O   0  0  0  0  0  0  0  0  0  0  0  0
   14.7598   -0.3365   -0.9480 C   0  0  0  0  0  0  0  0  0  0  0  0
   14.3824   -0.4634   -2.2424 C   0  0  0  0  0  0  0  0  0  0  0  0
   15.2215   -0.0412   -3.2819 O   0  0  0  0  0  0  0  0  0  0  0  0
   16.4228    0.6129   -3.0047 C   0  0  0  0  0  0  0  0  0  0  0  0
   16.9243    0.6373   -1.7571 C   0  0  0  0  0  0  0  0  0  0  0  0
   16.1602    0.0998   -0.5828 C   0  0  0  0  0  0  0  0  0  0  0  0
   18.2776    1.2193   -1.4541 C   0  0  3  0  0  0  0  0  0  0  0  0
   19.1154    0.1313   -1.1060 O   0  0  0  0  0  0  0  0  0  0  0  0
   20.4552    0.3312   -0.9720 C   0  0  0  0  0  0  0  0  0  0  0  0
   21.1694   -0.5168   -0.4635 O   0  0  0  0  0  0  0  0  0  0  0  0
   20.9387    1.5044   -1.4517 O   0  0  0  0  0  0  0  0  0  0  0  0
   20.2149    2.4183   -2.2907 C   0  0  0  0  0  0  0  0  0  0  0  0
   18.8723    1.8801   -2.6412 C   0  0  0  0  0  0  0  0  0  0  0  0
   18.2725    1.9016   -3.8530 C   0  0  0  0  0  0  0  0  0  0  0  0
   17.0787    1.2217   -4.0539 O   0  3  0  0  0  0  0  0  0  0  0  0
   18.8322    2.5837   -5.0438 C   0  0  0  0  0  0  0  0  0  0  0  0
   19.5311    1.8507   -6.0558 O   0  0  0  0  0  0  0  0  0  0  0  0
   18.2265    2.3965   -6.3359 O   0  0  0  0  0  0  0  0  0  0  0  0
   13.0810   -1.0961   -2.6860 C   0  0  0  0  0  0  0  0  0  0  0  0
   12.5411   -2.1420   -1.9273 C   0  0  0  0  0  0  0  0  0  0  0  0
   11.4147   -2.7658   -2.2885 N   0  3  0  0  0  0  0  0  0  0  0  0
   10.9338   -3.7523   -1.5069 F   0  0  0  0  0  0  0  0  0  0  0  0
   10.7702   -2.4767   -3.4004 N   0  0  0  0  0  0  0  0  0  0  0  0
   11.2347   -1.5230   -4.2076 C   0  0  0  0  0  0  0  0  0  0  0  0
   12.3930   -0.7774   -3.8897 C   0  0  0  0  0  0  0  0  0  0  0  0
   12.7939    0.2134   -4.8156 C   0  0  0  0  0  0  0  0  0  0  0  0
   12.1493    0.3848   -6.0474 C   0  0  0  0  0  0  0  0  0  0  0  0
   11.0079   -0.3308   -6.3437 C   0  0  0  0  0  0  0  0  0  0  0  0
   10.5646   -1.2704   -5.4129 C   0  0  0  0  0  0  0  0  0  0  0  0
    9.4688   -1.9904   -5.6987 F   0  0  0  0  0  0  0  0  0  0  0  0
   10.3176   -0.1870   -7.5191 O   0  0  0  0  0  0  0  0  0  0  0  0
   10.6300    1.0155   -8.2774 C   0  0  1  0  0  0  0  0  0  0  0  0
   12.0630    1.3377   -8.4055 C   0  0  0  0  0  0  0  0  0  0  0  0
   12.6420    1.6446   -9.4274 O   0  0  0  0  0  0  0  0  0  0  0  0
   12.7594    1.2559   -7.0613 C   0  0  0  0  0  0  0  0  0  0  0  0
   13.8157    1.8226   -6.8150 O   0  0  0  0  0  0  0  0  0  0  0  0
    9.8147    1.2752   -9.3876 O   0  0  0  0  0  0  0  0  0  0  0  0
    9.6925    2.1841   -8.2568 C   0  0  1  0  0  0  0  0  0  0  0  0
    8.6964    1.8950   -7.2196 O   0  0  0  0  0  0  0  0  0  0  0  0
    8.3264    2.6296   -8.2402 C   0  0  0  0  0  0  0  0  0  0  0  0
    7.8347    3.7519   -8.2719 O   0  0  0  0  0  0  0  0  0  0  0  0
   12.5988   -0.3648    1.9806 C   0  0  0  0  0  0  0  0  0  0  0  0
   11.8256   -1.2186    1.5611 O   0  0  0  0  0  0  0  0  0  0  0  0
   12.2829    0.5115    3.1739 C   0  0  0  0  0  0  0  0  0  0  0  0
   11.1886    0.4608    3.7041 O   0  0  0  0  0  0  0  0  0  0  0  0
   13.3427    1.4930    3.6368 C   0  0  0  0  0  0  0  0  0  0  0  0
   13.4821    1.8043    4.8038 O   0  0  0  0  0  0  0  0  0  0  0  0
  1  2  1  0  0  0  0
  2  3  2  0  0  0  0
  3  4  1  0  0  0  0
  3 52  1  0  0  0  0
  4  5  1  0  0  0  0
  5  6  1  6  0  0  0
  5 48  1  0  0  0  0
  6  7  1  0  0  0  0
  7  8  2  0  0  0  0
  7 12  1  0  0  0  0
  8  9  1  0  0  0  0
  8 25  1  0  0  0  0
  9 10  1  0  0  0  0
 10 11  2  0  0  0  0
 10 21  1  0  0  0  0
 11 12  1  0  0  0  0
 11 13  1  0  0  0  0
 13 14  1  0  0  0  0
 13 19  1  0  0  0  0
 14 15  1  0  0  0  0
 15 16  2  0  0  0  0
 15 17  1  0  0  0  0
 17 18  1  0  0  0  0
 18 19  1  0  0  0  0
 19 20  2  0  0  0  0
 20 21  1  0  0  0  0
 20 22  1  0  0  0  0
 22 23  1  0  0  0  0
 22 24  1  0  0  0  0
 23 24  1  0  0  0  0
 25 26  2  0  0  0  0
 25 31  1  0  0  0  0
 26 27  1  0  0  0  0
 27 28  1  0  0  0  0
 27 29  2  0  0  0  0
 29 30  1  0  0  0  0
 30 31  2  0  0  0  0
 30 35  1  0  0  0  0
 31 32  1  0  0  0  0
 32 33  2  0  0  0  0
 33 34  1  0  0  0  0
 33 41  1  0  0  0  0
 34 35  2  0  0  0  0
 34 37  1  0  0  0  0
 35 36  1  0  0  0  0
 38 37  1  1  0  0  0
 38 39  1  0  0  0  0
 38 43  1  0  0  0  0
 38 44  1  0  0  0  0
 39 40  2  0  0  0  0
 39 41  1  0  0  0  0
 41 42  2  0  0  0  0
 44 43  1  6  0  0  0
 44 45  1  0  0  0  0
 44 46  1  0  0  0  0
 45 46  1  0  0  0  0
 46 47  2  0  0  0  0
 48 49  2  0  0  0  0
 48 50  1  0  0  0  0
 50 51  2  0  0  0  0
 50 52  1  0  0  0  0
 52 53  2  0  0  0  0
M  CHG  2  21   1  27   1
M  END
$$$$