
 OpenBabel11242011443D

 54 63  0  0  1  0  0  0  0  0999 V2000
   -9.4216  -11.7024   12.4127 O   0  0  0  0  0  0  0  0  0  0  0  0
   -9.2505  -10.6567   13.2869 C   0  0  0  0  0  0  0  0  0  0  0  0
   -8.6128   -9.5315   12.9452 C   0  0  0  0  0  0  0  0  0  0  0  0
   -8.0598   -9.3995   11.6833 O   0  0  0  0  0  0  0  0  0  0  0  0
   -8.0577   -8.0702   11.1920 C   0  0  2  0  0  0  0  0  0  0  0  0
   -7.4926   -8.0208    9.8646 O   0  0  0  0  0  0  0  0  0  0  0  0
   -8.1963   -8.5336    8.7871 C   0  0  0  0  0  0  0  0  0  0  0  0
   -7.6934   -8.4463    7.5304 C   0  0  0  0  0  0  0  0  0  0  0  0
   -8.4041   -8.9507    6.4282 O   0  0  0  0  0  0  0  0  0  0  0  0
   -9.5676   -9.7050    6.6141 C   0  0  0  0  0  0  0  0  0  0  0  0
  -10.1190   -9.8424    7.8331 C   0  0  0  0  0  0  0  0  0  0  0  0
   -9.5168   -9.2191    9.0514 C   0  0  0  0  0  0  0  0  0  0  0  0
  -11.3465  -10.6817    8.0683 C   0  0  3  0  0  0  0  0  0  0  0  0
  -12.3403   -9.8767    8.6762 O   0  0  0  0  0  0  0  0  0  0  0  0
  -13.4536  -10.5654    9.0639 C   0  0  0  0  0  0  0  0  0  0  0  0
  -14.1842  -10.1672    9.9528 O   0  0  0  0  0  0  0  0  0  0  0  0
  -13.6340  -11.7447    8.4147 O   0  0  0  0  0  0  0  0  0  0  0  0
  -13.2595  -11.8070    7.0450 C   0  0  3  0  0  0  0  0  0  0  0  0
  -11.9346  -11.1649    6.7991 C   0  0  0  0  0  0  0  0  0  0  0  0
  -11.3344  -10.9905    5.5999 C   0  0  0  0  0  0  0  0  0  0  0  0
  -10.1255  -10.3134    5.5086 O   0  3  0  0  0  0  0  0  0  0  0  0
  -11.9177  -11.4453    4.3164 C   0  0  0  0  0  0  0  0  0  0  0  0
  -12.7724  -10.5801    3.5576 O   0  0  0  0  0  0  0  0  0  0  0  0
  -11.4515  -10.8895    3.0738 O   0  0  0  0  0  0  0  0  0  0  0  0
  -13.0858  -13.1638    6.6890 O   0  0  0  0  0  0  0  0  0  0  0  0
   -6.3523   -7.8268    7.1987 C   0  0  0  0  0  0  0  0  0  0  0  0
   -5.9084   -6.7244    7.9345 C   0  0  0  0  0  0  0  0  0  0  0  0
   -4.7121   -6.1715    7.7167 N   0  3  0  0  0  0  0  0  0  0  0  0
   -4.3160   -5.1451    8.4950 F   0  0  0  0  0  0  0  0  0  0  0  0
   -3.9006   -6.5831    6.7663 N   0  0  0  0  0  0  0  0  0  0  0  0
   -4.2445   -7.6129    5.9904 C   0  0  0  0  0  0  0  0  0  0  0  0
   -5.4736   -8.2916    6.1754 C   0  0  0  0  0  0  0  0  0  0  0  0
   -5.7196   -9.4043    5.3383 C   0  0  0  0  0  0  0  0  0  0  0  0
   -4.8204   -9.8012    4.3381 C   0  0  0  0  0  0  0  0  0  0  0  0
   -3.6350   -9.1319    4.1551 C   0  0  0  0  0  0  0  0  0  0  0  0
   -3.3478   -8.0184    4.9689 C   0  0  0  0  0  0  0  0  0  0  0  0
   -2.0519   -7.4581    4.9000 N   0  0  0  0  0  0  0  0  0  0  0  0
   -2.7453   -9.4437    3.1618 O   0  0  0  0  0  0  0  0  0  0  0  0
   -2.8264  -10.7430    2.5183 C   0  0  1  0  0  0  0  0  0  0  0  0
   -4.0411  -11.5702    2.6898 C   0  0  0  0  0  0  0  0  0  0  0  0
   -4.1397  -12.7227    2.3005 O   0  0  0  0  0  0  0  0  0  0  0  0
   -5.1554  -10.9284    3.4751 C   0  0  0  0  0  0  0  0  0  0  0  0
   -6.3098  -11.3351    3.4470 O   0  0  0  0  0  0  0  0  0  0  0  0
   -2.2717  -10.7961    1.2263 O   0  0  0  0  0  0  0  0  0  0  0  0
   -1.5460  -11.4968    2.2833 C   0  0  1  0  0  0  0  0  0  0  0  0
   -0.4759  -10.7517    2.9853 O   0  0  0  0  0  0  0  0  0  0  0  0
   -0.1559  -11.4509    1.9191 C   0  0  0  0  0  0  0  0  0  0  0  0
    0.6870  -12.3010    1.7310 O   0  0  0  0  0  0  0  0  0  0  0  0
   -7.1744   -7.2062   12.0694 C   0  0  0  0  0  0  0  0  0  0  0  0
   -6.2923   -6.4676   11.6503 O   0  0  0  0  0  0  0  0  0  0  0  0
   -7.5326   -7.3307   13.5344 C   0  0  0  0  0  0  0  0  0  0  0  0
   -7.0871   -6.5316   14.3383 O   0  0  0  0  0  0  0  0  0  0  0  0
   -8.4766   -8.4452   13.9599 C   0  0  0  0  0  0  0  0  0  0  0  0
   -9.1033   -8.4035   15.0024 O   0  0  0  0  0  0  0  0  0  0  0  0
  1  2  1  0  0  0  0
  2  3  2  0  0  0  0
  3  4  1  0  0  0  0
  3 53  1  0  0  0  0
  4  5  1  0  0  0  0
  5  6  1  6  0  0  0
  5 49  1  0  0  0  0
  6  7  1  0  0  0  0
  7  8  2  0  0  0  0
  7 12  1  0  0  0  0
  8  9  1  0  0  0  0
  8 26  1  0  0  0  0
  9 10  1  0  0  0  0
 10 11  2  0  0  0  0
 10 21  1  0  0  0  0
 11 12  1  0  0  0  0
 11 13  1  0  0  0  0
 13 14  1  0  0  0  0
 13 19  1  0  0  0  0
 14 15  1  0  0  0  0
 15 16  2  0  0  0  0
 15 17  1  0  0  0  0
 17 18  1  0  0  0  0
 18 19  1  0  0  0  0
 18 25  1  0  0  0  0
 19 20  2  0  0  0  0
 20 21  1  0  0  0  0
 20 22  1  0  0  0  0
 22 23  1  0  0  0  0
 22 24  1  0  0  0  0
 23 24  1  0  0  0  0
 26 27  2  0  0  0  0
 26 32  1  0  0  0  0
 27 28  1  0  0  0  0
 28 29  1  0  0  0  0
 28 30  2  0  0  0  0
 30 31  1  0  0  0  0
 31 32  2  0  0  0  0
 31 36  1  0  0  0  0
 32 33  1  0  0  0  0
 33 34  2  0  0  0  0
 34 35  1  0  0  0  0
 34 42  1  0  0  0  0
 35 36  2  0  0  0  0
 35 38  1  0  0  0  0
 36 37  1  0  0  0  0
 39 38  1  1  0  0  0
 39 40  1  0  0  0  0
 39 44  1  0  0  0  0
 39 45  1  0  0  0  0
 40 41  2  0  0  0  0
 40 42  1  0  0  0  0
 42 43  2  0  0  0  0
 45 44  1  6  0  0  0
 45 46  1  0  0  0  0
 45 47  1  0  0  0  0
 46 47  1  0  0  0  0
 47 48  2  0  0  0  0
 49 50  2  0  0  0  0
 49 51  1  0  0  0  0
 51 52  2  0  0  0  0
 51 53  1  0  0  0  0
 53 54  2  0  0  0  0
M  CHG  2  21   1  28   1
M  END
$$$$