
 OpenBabel11172005473D

 53 61  0  0  1  0  0  0  0  0999 V2000
    0.7912    6.9870   -5.0989 O   0  0  0  0  0  0  0  0  0  0  0  0
    1.1357    5.7547   -5.5951 C   0  0  0  0  0  0  0  0  0  0  0  0
    2.1520    5.0280   -5.1137 C   0  0  0  0  0  0  0  0  0  0  0  0
    2.9793    5.4949   -4.1141 O   0  0  0  0  0  0  0  0  0  0  0  0
    3.1207    4.5568   -3.0431 C   0  0  2  0  0  0  0  0  0  0  0  0
    3.7917    5.1019   -1.8944 O   0  0  0  0  0  0  0  0  0  0  0  0
    3.6081    6.4454   -1.5955 C   0  0  0  0  0  0  0  0  0  0  0  0
    4.5684    7.1489   -0.9569 C   0  0  0  0  0  0  0  0  0  0  0  0
    4.4289    8.4918   -0.6192 O   0  0  0  0  0  0  0  0  0  0  0  0
    3.2121    9.1210   -0.8351 C   0  0  0  0  0  0  0  0  0  0  0  0
    2.1748    8.4952   -1.4110 C   0  0  0  0  0  0  0  0  0  0  0  0
    2.2853    7.0989   -1.9181 C   0  0  0  0  0  0  0  0  0  0  0  0
    0.8677    9.2065   -1.6407 C   0  0  3  0  0  0  0  0  0  0  0  0
   -0.1714    8.3933   -1.0637 O   0  0  0  0  0  0  0  0  0  0  0  0
   -1.4221    8.8963   -0.9831 C   0  0  0  0  0  0  0  0  0  0  0  0
   -2.4078    8.1923   -0.7853 O   0  0  0  0  0  0  0  0  0  0  0  0
   -1.5919   10.3616   -1.1505 C   0  0  0  0  0  0  0  0  0  0  0  0
   -0.5161   11.1634   -1.1614 C   0  0  0  0  0  0  0  0  0  0  0  0
    0.8153   10.6034   -1.0616 C   0  0  0  0  0  0  0  0  0  0  0  0
    1.9073   11.1551   -0.4781 C   0  0  0  0  0  0  0  0  0  0  0  0
    3.0871   10.4231   -0.4266 N   0  0  0  0  0  0  0  0  0  0  0  0
    1.9407   12.4771    0.1887 C   0  0  0  0  0  0  0  0  0  0  0  0
    3.1331   13.2812    0.2211 O   0  0  0  0  0  0  0  0  0  0  0  0
    1.9990   13.7012   -0.5610 O   0  0  0  0  0  0  0  0  0  0  0  0
   -0.6364   12.5244   -1.3418 O   0  0  0  0  0  0  0  0  0  0  0  0
   -2.8852   10.8516   -1.2443 O   0  0  0  0  0  0  0  0  0  0  0  0
    5.8310    6.5490   -0.4873 C   0  0  0  0  0  0  0  0  0  0  0  0
    5.8639    6.0400    0.8043 C   0  0  0  0  0  0  0  0  0  0  0  0
    6.9525    5.4580    1.3400 N   0  0  0  0  0  0  0  0  0  0  0  0
    8.0718    5.3233    0.5808 N   0  0  0  0  0  0  0  0  0  0  0  0
    8.1056    5.7715   -0.6804 C   0  0  0  0  0  0  0  0  0  0  0  0
    7.0029    6.4310   -1.2671 C   0  0  0  0  0  0  0  0  0  0  0  0
    7.1383    6.9246   -2.5868 C   0  0  0  0  0  0  0  0  0  0  0  0
    8.3139    6.6993   -3.3129 C   0  0  0  0  0  0  0  0  0  0  0  0
    9.3575    5.9751   -2.7511 C   0  0  0  0  0  0  0  0  0  0  0  0
    9.2575    5.5573   -1.4269 C   0  0  0  0  0  0  0  0  0  0  0  0
   10.5044    5.6208   -3.4073 O   0  0  0  0  0  0  0  0  0  0  0  0
   10.4490    5.6612   -4.8399 C   0  0  2  0  0  0  0  0  0  0  0  0
    9.7590    6.8889   -5.3808 C   0  0  0  0  0  0  0  0  0  0  0  0
   10.1704    7.5617   -6.3151 O   0  0  0  0  0  0  0  0  0  0  0  0
    8.4629    7.2238   -4.6772 C   0  0  0  0  0  0  0  0  0  0  0  0
    7.6032    7.9038   -5.2135 O   0  0  0  0  0  0  0  0  0  0  0  0
    9.8424    4.4098   -5.3983 C   0  0  1  0  0  0  0  0  0  0  0  0
    8.4805    4.1106   -5.0031 O   0  0  0  0  0  0  0  0  0  0  0  0
   10.1399    4.1886   -6.7801 O   0  0  0  0  0  0  0  0  0  0  0  0
   10.6171    3.2801   -5.9086 C   0  0  0  0  0  0  0  0  0  0  0  0
   10.4079    2.0907   -5.8395 O   0  0  0  0  0  0  0  0  0  0  0  0
    3.9296    3.3713   -3.5617 C   0  0  0  0  0  0  0  0  0  0  0  0
    4.7306    2.7082   -2.9181 O   0  0  0  0  0  0  0  0  0  0  0  0
    3.6243    3.0263   -5.0072 C   0  0  0  0  0  0  0  0  0  0  0  0
    4.3388    2.2579   -5.6311 O   0  0  0  0  0  0  0  0  0  0  0  0
    2.4392    3.6896   -5.6842 C   0  0  0  0  0  0  0  0  0  0  0  0
    1.7846    3.1477   -6.5555 O   0  0  0  0  0  0  0  0  0  0  0  0
  1  2  1  0  0  0  0
  2  3  2  0  0  0  0
  3  4  1  0  0  0  0
  3 52  1  0  0  0  0
  4  5  1  0  0  0  0
  5  6  1  1  0  0  0
  5 48  1  0  0  0  0
  6  7  1  0  0  0  0
  7  8  2  0  0  0  0
  7 12  1  0  0  0  0
  8  9  1  0  0  0  0
  8 27  1  0  0  0  0
  9 10  1  0  0  0  0
 10 11  2  0  0  0  0
 10 21  1  0  0  0  0
 11 12  1  0  0  0  0
 11 13  1  0  0  0  0
 13 14  1  0  0  0  0
 13 19  1  0  0  0  0
 14 15  1  0  0  0  0
 15 16  2  0  0  0  0
 15 17  1  0  0  0  0
 17 18  2  0  0  0  0
 17 26  1  0  0  0  0
 18 19  1  0  0  0  0
 18 25  1  0  0  0  0
 19 20  2  0  0  0  0
 20 21  1  0  0  0  0
 20 22  1  0  0  0  0
 22 23  1  0  0  0  0
 22 24  1  0  0  0  0
 23 24  1  0  0  0  0
 27 28  2  0  0  0  0
 27 32  1  0  0  0  0
 28 29  1  0  0  0  0
 29 30  2  0  0  0  0
 30 31  1  0  0  0  0
 31 32  2  0  0  0  0
 31 36  1  0  0  0  0
 32 33  1  0  0  0  0
 33 34  2  0  0  0  0
 34 35  1  0  0  0  0
 34 41  1  0  0  0  0
 35 36  2  0  0  0  0
 35 37  1  0  0  0  0
 38 37  1  1  0  0  0
 38 39  1  0  0  0  0
 38 43  1  0  0  0  0
 39 40  2  0  0  0  0
 39 41  1  0  0  0  0
 41 42  2  0  0  0  0
 43 44  1  1  0  0  0
 43 45  1  0  0  0  0
 43 46  1  0  0  0  0
 45 46  1  0  0  0  0
 46 47  2  0  0  0  0
 48 49  2  0  0  0  0
 48 50  1  0  0  0  0
 50 51  2  0  0  0  0
 50 52  1  0  0  0  0
 52 53  2  0  0  0  0
M  END
$$$$