
 OpenBabel11212017443D

 54 62  0  0  1  0  0  0  0  0999 V2000
    5.6765   -3.4882    2.7574 O   0  0  0  0  0  0  0  0  0  0  0  0
    4.8562   -2.5337    2.2108 C   0  0  0  0  0  0  0  0  0  0  0  0
    3.6037   -2.3231    2.6324 C   0  0  0  0  0  0  0  0  0  0  0  0
    3.1141   -3.0078    3.7266 O   0  0  0  0  0  0  0  0  0  0  0  0
    1.7138   -3.1789    3.8780 C   0  0  2  0  0  0  0  0  0  0  0  0
    1.2027   -4.3121    3.1220 O   0  0  0  0  0  0  0  0  0  0  0  0
    1.6003   -5.6058    3.4812 C   0  0  0  0  0  0  0  0  0  0  0  0
    1.0001   -6.7123    2.9699 C   0  0  0  0  0  0  0  0  0  0  0  0
    1.4114   -8.0168    3.3330 O   0  0  0  0  0  0  0  0  0  0  0  0
    2.5030   -8.2176    4.1898 C   0  0  0  0  0  0  0  0  0  0  0  0
    3.1390   -7.1667    4.7286 C   0  0  0  0  0  0  0  0  0  0  0  0
    2.7679   -5.7544    4.4217 C   0  0  0  0  0  0  0  0  0  0  0  0
    4.2862   -7.3166    5.6804 C   0  0  3  0  0  0  0  0  0  0  0  0
    3.8849   -6.7526    6.9160 O   0  0  0  0  0  0  0  0  0  0  0  0
    4.8477   -6.7223    7.8767 C   0  0  0  0  0  0  0  0  0  0  0  0
    4.7788   -5.9681    8.8310 O   0  0  0  0  0  0  0  0  0  0  0  0
    5.8924   -7.5582    7.6558 O   0  0  0  0  0  0  0  0  0  0  0  0
    5.6708   -8.8031    6.9985 C   0  0  3  0  0  0  0  0  0  0  0  0
    4.5869   -8.7298    5.9761 C   0  0  0  0  0  0  0  0  0  0  0  0
    3.9256   -9.7574    5.3966 C   0  0  0  0  0  0  0  0  0  0  0  0
    2.9050   -9.5120    4.4779 O   0  3  0  0  0  0  0  0  0  0  0  0
    4.2063  -11.1790    5.7129 C   0  0  0  0  0  0  0  0  0  0  0  0
    3.5021  -11.8459    6.7698 O   0  0  0  0  0  0  0  0  0  0  0  0
    3.2465  -12.2016    5.3974 O   0  0  0  0  0  0  0  0  0  0  0  0
    6.8326   -9.1250    6.2590 O   0  0  0  0  0  0  0  0  0  0  0  0
   -0.1300   -6.6635    1.9742 C   0  0  0  0  0  0  0  0  0  0  0  0
   -1.0950   -5.6610    2.0783 C   0  0  0  0  0  0  0  0  0  0  0  0
   -2.1014   -5.5628    1.2051 N   0  3  0  0  0  0  0  0  0  0  0  0
   -2.9589   -4.5289    1.3110 F   0  0  0  0  0  0  0  0  0  0  0  0
   -2.2921   -6.4351    0.2401 N   0  0  0  0  0  0  0  0  0  0  0  0
   -1.4259   -7.4355    0.0658 C   0  0  0  0  0  0  0  0  0  0  0  0
   -0.2954   -7.5832    0.9049 C   0  0  0  0  0  0  0  0  0  0  0  0
    0.6057   -8.6281    0.6063 C   0  0  0  0  0  0  0  0  0  0  0  0
    0.3892   -9.5061   -0.4581 C   0  0  0  0  0  0  0  0  0  0  0  0
    1.3681  -10.5543   -0.7349 C   0  0  0  0  0  0  0  0  0  0  0  0
    2.3155  -10.7292    0.0181 O   0  0  0  0  0  0  0  0  0  0  0  0
    1.1549  -11.3731   -1.9840 C   0  0  0  0  0  0  0  0  0  0  0  0
    1.7831  -12.4078   -2.1442 O   0  0  0  0  0  0  0  0  0  0  0  0
    0.2072  -10.7528   -2.9858 C   0  0  1  0  0  0  0  0  0  0  0  0
   -0.9501  -10.1525   -2.3677 O   0  0  0  0  0  0  0  0  0  0  0  0
   -0.7233   -9.3724   -1.2626 C   0  0  0  0  0  0  0  0  0  0  0  0
   -1.6381   -8.3337   -1.0041 C   0  0  0  0  0  0  0  0  0  0  0  0
   -2.8601   -8.3210   -1.7174 N   0  0  0  0  0  0  0  0  0  0  0  0
    0.9275   -9.8245   -3.9435 C   0  0  1  0  0  0  0  0  0  0  0  0
    1.9569  -10.4282   -4.7543 O   0  0  0  0  0  0  0  0  0  0  0  0
    0.0573   -8.9185   -4.6535 O   0  0  0  0  0  0  0  0  0  0  0  0
    0.9607   -8.3803   -3.8420 C   0  0  0  0  0  0  0  0  0  0  0  0
    0.8752   -7.6279   -2.8796 O   0  0  0  0  0  0  0  0  0  0  0  0
    0.9186   -1.9403    3.5155 C   0  0  0  0  0  0  0  0  0  0  0  0
   -0.0207   -1.4861    4.1480 O   0  0  0  0  0  0  0  0  0  0  0  0
    1.3306   -1.3723    2.1982 C   0  0  0  0  0  0  0  0  0  0  0  0
    0.4751   -1.1506    1.3559 O   0  0  0  0  0  0  0  0  0  0  0  0
    2.7983   -1.3289    1.8704 C   0  0  0  0  0  0  0  0  0  0  0  0
    3.2388   -0.5927    1.0063 O   0  0  0  0  0  0  0  0  0  0  0  0
  1  2  1  0  0  0  0
  2  3  2  0  0  0  0
  3  4  1  0  0  0  0
  3 53  1  0  0  0  0
  4  5  1  0  0  0  0
  5  6  1  6  0  0  0
  5 49  1  0  0  0  0
  6  7  1  0  0  0  0
  7  8  2  0  0  0  0
  7 12  1  0  0  0  0
  8  9  1  0  0  0  0
  8 26  1  0  0  0  0
  9 10  1  0  0  0  0
 10 11  2  0  0  0  0
 10 21  1  0  0  0  0
 11 12  1  0  0  0  0
 11 13  1  0  0  0  0
 13 14  1  0  0  0  0
 13 19  1  0  0  0  0
 14 15  1  0  0  0  0
 15 16  2  0  0  0  0
 15 17  1  0  0  0  0
 17 18  1  0  0  0  0
 18 19  1  0  0  0  0
 18 25  1  0  0  0  0
 19 20  2  0  0  0  0
 20 21  1  0  0  0  0
 20 22  1  0  0  0  0
 22 23  1  0  0  0  0
 22 24  1  0  0  0  0
 23 24  1  0  0  0  0
 26 27  2  0  0  0  0
 26 32  1  0  0  0  0
 27 28  1  0  0  0  0
 28 29  1  0  0  0  0
 28 30  2  0  0  0  0
 30 31  1  0  0  0  0
 31 32  2  0  0  0  0
 31 42  1  0  0  0  0
 32 33  1  0  0  0  0
 33 34  2  0  0  0  0
 34 35  1  0  0  0  0
 34 41  1  0  0  0  0
 35 36  2  0  0  0  0
 35 37  1  0  0  0  0
 37 38  2  0  0  0  0
 39 37  1  1  0  0  0
 39 40  1  0  0  0  0
 39 44  1  0  0  0  0
 40 41  1  0  0  0  0
 41 42  2  0  0  0  0
 42 43  1  0  0  0  0
 44 45  1  6  0  0  0
 44 46  1  0  0  0  0
 44 47  1  0  0  0  0
 46 47  1  0  0  0  0
 47 48  2  0  0  0  0
 49 50  2  0  0  0  0
 49 51  1  0  0  0  0
 51 52  2  0  0  0  0
 51 53  1  0  0  0  0
 53 54  2  0  0  0  0
M  CHG  2  21   1  28   1
M  END
$$$$