
 OpenBabel11152012033D

 52 60  0  0  1  0  0  0  0  0999 V2000
    1.6245    4.0176   -1.9021 O   0  0  0  0  0  0  0  0  0  0  0  0
    1.8433    3.0046   -1.0065 C   0  0  0  0  0  0  0  0  0  0  0  0
    1.7998    1.7070   -1.3353 C   0  0  0  0  0  0  0  0  0  0  0  0
    1.4853    1.2629   -2.6094 O   0  0  0  0  0  0  0  0  0  0  0  0
    2.4747    0.3774   -3.1402 C   0  0  2  0  0  0  0  0  0  0  0  0
    2.0877   -0.1587   -4.4191 O   0  0  0  0  0  0  0  0  0  0  0  0
    2.3818    0.5911   -5.5537 C   0  0  0  0  0  0  0  0  0  0  0  0
    2.5338    0.0321   -6.7848 C   0  0  0  0  0  0  0  0  0  0  0  0
    2.8029    0.8154   -7.9205 O   0  0  0  0  0  0  0  0  0  0  0  0
    2.7908    2.1949   -7.8319 C   0  0  0  0  0  0  0  0  0  0  0  0
    2.6635    2.8244   -6.6571 C   0  0  0  0  0  0  0  0  0  0  0  0
    2.4886    2.0853   -5.3820 C   0  0  0  0  0  0  0  0  0  0  0  0
    2.6418    4.3233   -6.5737 C   0  0  3  0  0  0  0  0  0  0  0  0
    3.7026    4.7232   -5.7076 O   0  0  0  0  0  0  0  0  0  0  0  0
    4.1747    5.9929   -5.6980 C   0  0  0  0  0  0  0  0  0  0  0  0
    4.9785    6.3609   -4.8507 O   0  0  0  0  0  0  0  0  0  0  0  0
    3.7499    6.8317   -6.6751 O   0  0  0  0  0  0  0  0  0  0  0  0
    2.8142    6.4606   -7.6770 C   0  0  3  0  0  0  0  0  0  0  0  0
    2.8004    5.0009   -7.8855 C   0  0  0  0  0  0  0  0  0  0  0  0
    2.9113    4.3110   -9.0435 C   0  0  0  0  0  0  0  0  0  0  0  0
    2.8986    2.9218   -8.9926 N   0  0  0  0  0  0  0  0  0  0  0  0
    3.0354    4.9335  -10.3813 C   0  0  0  0  0  0  0  0  0  0  0  0
    4.3128    5.2774  -10.9381 O   0  0  0  0  0  0  0  0  0  0  0  0
    3.5357    4.2114  -11.5203 O   0  0  0  0  0  0  0  0  0  0  0  0
    1.5150    6.8592   -7.2712 O   0  0  0  0  0  0  0  0  0  0  0  0
    2.4634   -1.5113   -7.0912 C   0  0  3  0  0  0  0  0  0  0  0  0
    1.5862   -2.1184   -6.2580 N   0  0  0  0  0  0  0  0  0  0  0  0
    0.3436   -2.3309   -6.6280 N   0  3  0  0  0  0  0  0  0  0  0  0
   -0.0401   -2.1765   -7.8624 N   0  0  0  0  0  0  0  0  0  0  0  0
    0.8761   -1.9484   -8.8031 C   0  0  0  0  0  0  0  0  0  0  0  0
    2.2088   -1.7098   -8.4718 C   0  0  0  0  0  0  0  0  0  0  0  0
    3.1821   -1.6782   -9.5108 C   0  0  0  0  0  0  0  0  0  0  0  0
    2.7870   -1.7588  -10.8498 C   0  0  0  0  0  0  0  0  0  0  0  0
    1.4369   -1.8314  -11.1694 C   0  0  0  0  0  0  0  0  0  0  0  0
    0.5009   -1.9587  -10.1433 C   0  0  0  0  0  0  0  0  0  0  0  0
    0.9325   -1.8000  -12.4409 O   0  0  0  0  0  0  0  0  0  0  0  0
    1.8159   -1.3107  -13.4601 C   0  0  2  0  0  0  0  0  0  0  0  0
    3.2174   -1.8493  -13.3379 C   0  0  0  0  0  0  0  0  0  0  0  0
    3.8635   -2.3217  -14.2614 O   0  0  0  0  0  0  0  0  0  0  0  0
    3.7787   -1.7616  -11.9364 C   0  0  0  0  0  0  0  0  0  0  0  0
    4.9797   -1.7120  -11.7324 O   0  0  0  0  0  0  0  0  0  0  0  0
    1.7942    0.1846  -13.5142 C   0  0  1  0  0  0  0  0  0  0  0  0
    2.2585    0.9023  -12.3415 O   0  0  0  0  0  0  0  0  0  0  0  0
    2.1872    0.7511  -14.7682 O   0  0  0  0  0  0  0  0  0  0  0  0
    0.9098    0.9093  -14.4003 C   0  0  0  0  0  0  0  0  0  0  0  0
    0.2767    1.9407  -14.2147 O   0  0  0  0  0  0  0  0  0  0  0  0
    2.8372   -0.7979   -2.2392 C   0  0  0  0  0  0  0  0  0  0  0  0
    3.6263   -1.6881   -2.5282 O   0  0  0  0  0  0  0  0  0  0  0  0
    2.3001   -0.6771   -0.8358 C   0  0  0  0  0  0  0  0  0  0  0  0
    2.0618   -1.6663   -0.1635 O   0  0  0  0  0  0  0  0  0  0  0  0
    2.1006    0.7111   -0.2747 C   0  0  0  0  0  0  0  0  0  0  0  0
    2.2472    0.9684    0.9072 O   0  0  0  0  0  0  0  0  0  0  0  0
  1  2  1  0  0  0  0
  2  3  2  0  0  0  0
  3  4  1  0  0  0  0
  3 51  1  0  0  0  0
  4  5  1  0  0  0  0
  5  6  1  6  0  0  0
  5 47  1  0  0  0  0
  6  7  1  0  0  0  0
  7  8  2  0  0  0  0
  7 12  1  0  0  0  0
  8  9  1  0  0  0  0
  8 26  1  0  0  0  0
  9 10  1  0  0  0  0
 10 11  2  0  0  0  0
 10 21  1  0  0  0  0
 11 12  1  0  0  0  0
 11 13  1  0  0  0  0
 13 14  1  0  0  0  0
 13 19  1  0  0  0  0
 14 15  1  0  0  0  0
 15 16  2  0  0  0  0
 15 17  1  0  0  0  0
 17 18  1  0  0  0  0
 18 19  1  0  0  0  0
 18 25  1  0  0  0  0
 19 20  2  0  0  0  0
 20 21  1  0  0  0  0
 20 22  1  0  0  0  0
 22 23  1  0  0  0  0
 22 24  1  0  0  0  0
 23 24  1  0  0  0  0
 26 27  1  0  0  0  0
 26 31  1  0  0  0  0
 27 28  2  0  0  0  0
 28 29  2  0  0  0  0
 29 30  1  0  0  0  0
 30 31  2  0  0  0  0
 30 35  1  0  0  0  0
 31 32  1  0  0  0  0
 32 33  2  0  0  0  0
 33 34  1  0  0  0  0
 33 40  1  0  0  0  0
 34 35  2  0  0  0  0
 34 36  1  0  0  0  0
 37 36  1  1  0  0  0
 37 38  1  0  0  0  0
 37 42  1  0  0  0  0
 38 39  2  0  0  0  0
 38 40  1  0  0  0  0
 40 41  2  0  0  0  0
 42 43  1  1  0  0  0
 42 44  1  0  0  0  0
 42 45  1  0  0  0  0
 44 45  1  0  0  0  0
 45 46  2  0  0  0  0
 47 48  2  0  0  0  0
 47 49  1  0  0  0  0
 49 50  2  0  0  0  0
 49 51  1  0  0  0  0
 51 52  2  0  0  0  0
M  CHG  1  28   1
M  END
$$$$