
 OpenBabel11262000523D

 54 62  0  0  1  0  0  0  0  0999 V2000
    3.1643    8.8225    1.2198 O   0  0  0  0  0  0  0  0  0  0  0  0
    3.3237    8.0375    0.1021 C   0  0  0  0  0  0  0  0  0  0  0  0
    3.3203    6.6993    0.1382 C   0  0  0  0  0  0  0  0  0  0  0  0
    3.1852    6.0301    1.3415 O   0  0  0  0  0  0  0  0  0  0  0  0
    2.4329    4.8209    1.2409 C   0  0  2  0  0  0  0  0  0  0  0  0
    2.3704    4.1344    2.5317 O   0  0  0  0  0  0  0  0  0  0  0  0
    2.1481    4.8971    3.6714 C   0  0  0  0  0  0  0  0  0  0  0  0
    2.6333    4.4750    4.8561 C   0  0  0  0  0  0  0  0  0  0  0  0
    2.4625    5.1865    6.0503 O   0  0  0  0  0  0  0  0  0  0  0  0
    1.7952    6.4274    6.0310 C   0  0  0  0  0  0  0  0  0  0  0  0
    1.2316    6.8918    4.8960 C   0  0  0  0  0  0  0  0  0  0  0  0
    1.3053    6.1520    3.5868 C   0  0  0  0  0  0  0  0  0  0  0  0
    0.5401    8.2379    4.8387 C   0  0  3  0  0  0  0  0  0  0  0  0
   -0.8147    8.0299    4.4913 O   0  0  0  0  0  0  0  0  0  0  0  0
   -1.6175    9.1219    4.5625 C   0  0  0  0  0  0  0  0  0  0  0  0
   -2.7786    9.0796    4.0370 N   0  0  0  0  0  0  0  0  0  0  0  0
   -1.1783   10.2290    5.1978 O   0  0  0  0  0  0  0  0  0  0  0  0
   -0.1526   10.1816    6.0644 C   0  0  0  0  0  0  0  0  0  0  0  0
    0.2374   11.1283    6.7287 O   0  0  0  0  0  0  0  0  0  0  0  0
    0.5423    8.9014    6.1508 C   0  0  0  0  0  0  0  0  0  0  0  0
    1.1144    8.3996    7.2630 C   0  0  0  0  0  0  0  0  0  0  0  0
    1.7405    7.1590    7.2047 O   0  3  0  0  0  0  0  0  0  0  0  0
    1.1510    9.0303    8.6112 C   0  0  0  0  0  0  0  0  0  0  0  0
    1.2198    8.1834    9.7774 O   0  0  0  0  0  0  0  0  0  0  0  0
    2.3607    8.9662    9.3886 O   0  0  0  0  0  0  0  0  0  0  0  0
    3.4103    3.2090    4.9624 C   0  0  0  0  0  0  0  0  0  0  0  0
    4.7918    3.2443    4.7316 C   0  0  0  0  0  0  0  0  0  0  0  0
    5.5157    2.1278    4.8525 N   0  3  0  0  0  0  0  0  0  0  0  0
    6.8492    2.1768    4.6513 F   0  0  0  0  0  0  0  0  0  0  0  0
    4.9714    0.9748    5.1916 N   0  0  0  0  0  0  0  0  0  0  0  0
    3.6404    0.9018    5.3851 C   0  0  0  0  0  0  0  0  0  0  0  0
    2.8096    2.0086    5.2624 N   0  3  0  0  0  0  0  0  0  0  0  0
    1.4610    1.8553    5.4291 C   0  0  0  0  0  0  0  0  0  0  0  0
    0.9007    0.6231    5.7695 C   0  0  0  0  0  0  0  0  0  0  0  0
   -0.5437    0.5116    5.9377 C   0  0  0  0  0  0  0  0  0  0  0  0
   -1.2196    1.5133    5.7813 O   0  0  0  0  0  0  0  0  0  0  0  0
   -1.0901   -0.8578    6.2889 C   0  0  0  0  0  0  0  0  0  0  0  0
   -2.2463   -1.1403    6.0303 O   0  0  0  0  0  0  0  0  0  0  0  0
   -0.0746   -1.7630    6.9530 C   0  0  1  0  0  0  0  0  0  0  0  0
    1.2270   -1.7057    6.3195 O   0  0  0  0  0  0  0  0  0  0  0  0
    1.6974   -0.4804    5.9525 C   0  0  0  0  0  0  0  0  0  0  0  0
    3.0616   -0.3269    5.7371 C   0  0  0  0  0  0  0  0  0  0  0  0
    3.8660   -1.3876    5.8926 F   0  0  0  0  0  0  0  0  0  0  0  0
    0.0591   -1.4359    8.4049 C   0  0  1  0  0  0  0  0  0  0  0  0
    0.5520   -0.1003    8.7307 O   0  0  0  0  0  0  0  0  0  0  0  0
   -0.9488   -1.9435    9.2565 O   0  0  0  0  0  0  0  0  0  0  0  0
    0.2869   -2.4519    9.4447 C   0  0  0  0  0  0  0  0  0  0  0  0
    1.0499   -2.3353   10.3831 O   0  0  0  0  0  0  0  0  0  0  0  0
    3.1469    3.8852    0.2717 C   0  0  3  0  0  0  0  0  0  0  0  0
    3.1677    4.4699   -1.1263 C   0  0  3  0  0  0  0  0  0  0  0  0
    3.4766    5.9495   -1.1532 C   0  0  0  0  0  0  0  0  0  0  0  0
    3.7455    6.5425   -2.1940 O   0  0  0  0  0  0  0  0  0  0  0  0
    4.0199    3.7269   -1.8859 F   0  0  0  0  0  0  0  0  0  0  0  0
    4.4231    3.7160    0.7507 F   0  0  0  0  0  0  0  0  0  0  0  0
  1  2  1  0  0  0  0
  2  3  2  0  0  0  0
  3  4  1  0  0  0  0
  3 51  1  0  0  0  0
  4  5  1  0  0  0  0
  5  6  1  1  0  0  0
  5 49  1  0  0  0  0
  6  7  1  0  0  0  0
  7  8  2  0  0  0  0
  7 12  1  0  0  0  0
  8  9  1  0  0  0  0
  8 26  1  0  0  0  0
  9 10  1  0  0  0  0
 10 11  2  0  0  0  0
 10 22  1  0  0  0  0
 11 12  1  0  0  0  0
 11 13  1  0  0  0  0
 13 14  1  0  0  0  0
 13 20  1  0  0  0  0
 14 15  1  0  0  0  0
 15 16  2  0  0  0  0
 15 17  1  0  0  0  0
 17 18  1  0  0  0  0
 18 19  2  0  0  0  0
 18 20  1  0  0  0  0
 20 21  2  0  0  0  0
 21 22  1  0  0  0  0
 21 23  1  0  0  0  0
 23 24  1  0  0  0  0
 23 25  1  0  0  0  0
 24 25  1  0  0  0  0
 26 27  2  0  0  0  0
 26 32  1  0  0  0  0
 27 28  1  0  0  0  0
 28 29  1  0  0  0  0
 28 30  2  0  0  0  0
 30 31  1  0  0  0  0
 31 32  2  0  0  0  0
 31 42  1  0  0  0  0
 32 33  1  0  0  0  0
 33 34  2  0  0  0  0
 34 35  1  0  0  0  0
 34 41  1  0  0  0  0
 35 36  2  0  0  0  0
 35 37  1  0  0  0  0
 37 38  2  0  0  0  0
 39 37  1  6  0  0  0
 39 40  1  0  0  0  0
 39 44  1  0  0  0  0
 40 41  1  0  0  0  0
 41 42  2  0  0  0  0
 42 43  1  0  0  0  0
 44 45  1  1  0  0  0
 44 46  1  0  0  0  0
 44 47  1  0  0  0  0
 46 47  1  0  0  0  0
 47 48  2  0  0  0  0
 49 50  1  0  0  0  0
 49 54  1  0  0  0  0
 50 51  1  0  0  0  0
 50 53  1  0  0  0  0
 51 52  2  0  0  0  0
M  CHG  3  22   1  28   1  32   1
M  END
$$$$