
 OpenBabel05292106593D

 49 57  0  0  1  0  0  0  0  0999 V2000
    6.4626   -2.9849   -4.4889 O   0  0  0  0  0  0  0  0  0  0  0  0
    6.3079   -1.8674   -3.7257 C   0  0  0  0  0  0  0  0  0  0  0  0
    7.4104   -1.1781   -3.2265 C   0  0  0  0  0  0  0  0  0  0  0  0
    7.2169   -0.0345   -2.4549 C   0  0  0  0  0  0  0  0  0  0  0  0
    5.9123    0.4199   -2.1824 C   0  0  0  0  0  0  0  0  0  0  0  0
    4.8150   -0.2925   -2.6998 C   0  0  0  0  0  0  0  0  0  0  0  0
    5.0117   -1.4349   -3.4637 C   0  0  0  0  0  0  0  0  0  0  0  0
    3.5092    0.0810   -2.5018 O   0  0  0  0  0  0  0  0  0  0  0  0
    5.7015    1.5596   -1.2980 C   0  0  0  0  0  0  0  0  0  0  0  0
    4.6475    1.6505   -0.6634 O   0  0  0  0  0  0  0  0  0  0  0  0
    6.7670    2.4485   -1.3303 O   0  0  0  0  0  0  0  0  0  0  0  0
    6.7981    3.6033   -0.5028 C   0  0  0  0  0  0  0  0  0  0  0  0
    5.6009    4.2094   -0.0726 C   0  0  0  0  0  0  0  0  0  0  0  0
    5.5806    5.2836    0.8226 C   0  0  0  0  0  0  0  0  0  0  0  0
    6.7870    5.8155    1.2843 C   0  0  0  0  0  0  0  0  0  0  0  0
    7.9674    5.2482    0.7987 C   0  0  0  0  0  0  0  0  0  0  0  0
    8.0253    4.1691   -0.0936 C   0  0  0  0  0  0  0  0  0  0  0  0
    9.4153    3.9579   -0.3144 C   0  0  0  0  0  0  0  0  0  0  0  0
   10.0833    4.9081    0.4727 C   0  0  0  0  0  0  0  0  0  0  0  0
    9.2134    5.6934    1.1369 O   0  0  0  0  0  0  0  0  0  0  0  0
   11.5540    5.2554    0.4128 C   0  0  2  0  0  0  0  0  0  0  0  0
   11.9504    4.5636   -0.8692 C   0  0  0  0  0  0  0  0  0  0  0  0
   11.7670    3.0034   -0.5295 C   0  0  2  0  0  0  0  0  0  0  0  0
   10.2559    3.0311   -1.1340 C   0  0  0  0  0  0  0  0  0  0  0  0
    9.8711    2.3881   -2.0948 O   0  0  0  0  0  0  0  0  0  0  0  0
   11.2152    2.0928    0.7074 C   0  0  0  0  0  0  0  0  0  0  0  0
   13.1155    2.8175   -0.2261 O   0  0  0  0  0  0  0  0  0  0  0  0
   13.3927    3.5516    0.9712 C   0  0  0  0  0  0  0  0  0  0  0  0
   12.5621    4.6510    1.3899 C   0  0  0  0  0  0  0  0  0  0  0  0
   12.7713    5.1993    2.6539 C   0  0  0  0  0  0  0  0  0  0  0  0
   13.7787    4.6780    3.4785 C   0  0  0  0  0  0  0  0  0  0  0  0
   14.6038    3.6116    3.0571 C   0  0  0  0  0  0  0  0  0  0  0  0
   14.4163    3.0678    1.7755 C   0  0  0  0  0  0  0  0  0  0  0  0
   15.6755    3.0632    3.9816 C   0  0  0  0  0  0  0  0  0  0  0  0
   16.8719    3.7873    3.7476 O   0  0  0  0  0  0  0  0  0  0  0  0
   17.9072    3.2464    4.5452 C   0  0  0  0  0  0  0  0  0  0  0  0
   18.1059    1.8714    4.2775 O   0  0  0  0  0  0  0  0  0  0  0  0
   16.9004    1.1718    4.5161 C   0  0  0  0  0  0  0  0  0  0  0  0
   15.8436    1.6752    3.7274 O   0  0  0  0  0  0  0  0  0  0  0  0
    4.3025    5.8159    1.2759 C   0  0  0  0  0  0  0  0  0  0  0  0
    3.2577    5.6755    0.4052 O   0  0  0  0  0  0  0  0  0  0  0  0
    2.1616    6.2268    0.9900 C   0  0  0  0  0  0  0  0  0  0  0  0
    2.4883    6.7216    2.2462 C   0  0  0  0  0  0  0  0  0  0  0  0
    3.8711    6.4505    2.4229 C   0  0  0  0  0  0  0  0  0  0  0  0
    1.4792    7.3323    3.0105 C   0  0  0  0  0  0  0  0  0  0  0  0
    0.1878    7.4247    2.4704 C   0  0  0  0  0  0  0  0  0  0  0  0
   -0.0862    6.9140    1.2010 C   0  0  0  0  0  0  0  0  0  0  0  0
    0.8921    6.2966    0.4241 C   0  0  0  0  0  0  0  0  0  0  0  0
   -1.3405    7.0041    0.6670 O   0  0  0  0  0  0  0  0  0  0  0  0
  1  2  1  0  0  0  0
  2  3  2  0  0  0  0
  2  7  1  0  0  0  0
  3  4  1  0  0  0  0
  4  5  2  0  0  0  0
  5  6  1  0  0  0  0
  5  9  1  0  0  0  0
  6  7  2  0  0  0  0
  6  8  1  0  0  0  0
  9 10  2  0  0  0  0
  9 11  1  0  0  0  0
 11 12  1  0  0  0  0
 12 13  2  0  0  0  0
 12 17  1  0  0  0  0
 13 14  1  0  0  0  0
 14 15  2  0  0  0  0
 14 40  1  0  0  0  0
 15 16  1  0  0  0  0
 16 17  2  0  0  0  0
 16 20  1  0  0  0  0
 17 18  1  0  0  0  0
 18 19  2  0  0  0  0
 18 24  1  0  0  0  0
 19 20  1  0  0  0  0
 21 19  1  1  0  0  0
 21 22  1  0  0  0  0
 21 29  1  0  0  0  0
 22 23  1  0  0  0  0
 23 24  1  0  0  0  0
 23 27  1  0  0  0  0
 23 26  1  1  0  0  0
 24 25  2  0  0  0  0
 27 28  1  0  0  0  0
 28 29  2  0  0  0  0
 28 33  1  0  0  0  0
 29 30  1  0  0  0  0
 30 31  2  0  0  0  0
 31 32  1  0  0  0  0
 32 33  2  0  0  0  0
 32 34  1  0  0  0  0
 34 35  1  0  0  0  0
 34 39  1  0  0  0  0
 35 36  1  0  0  0  0
 36 37  1  0  0  0  0
 37 38  1  0  0  0  0
 38 39  1  0  0  0  0
 40 41  1  0  0  0  0
 40 44  2  0  0  0  0
 41 42  1  0  0  0  0
 42 43  2  0  0  0  0
 42 48  1  0  0  0  0
 43 44  1  0  0  0  0
 43 45  1  0  0  0  0
 45 46  2  0  0  0  0
 46 47  1  0  0  0  0
 47 48  2  0  0  0  0
 47 49  1  0  0  0  0
M  END
$$$$