
 OpenBabel09222002363D

 52 60  0  0  1  0  0  0  0  0999 V2000
    2.3663   -0.8846   -0.5191 O   0  0  0  0  0  0  0  0  0  0  0  0
    3.3657   -1.2147   -1.1488 C   0  0  0  0  0  0  0  0  0  0  0  0
    3.6007   -2.5056   -1.4843 N   0  0  0  0  0  0  0  0  0  0  0  0
    4.6155   -2.9358   -2.4195 C   0  0  0  0  0  0  0  0  0  0  0  0
    5.6390   -1.8910   -2.6951 C   0  0  0  0  0  0  0  0  0  0  0  0
    5.4633   -0.5935   -2.2400 C   0  0  0  0  0  0  0  0  0  0  0  0
    4.3036   -0.2982   -1.5107 N   0  0  0  0  0  0  0  0  0  0  0  0
    6.4229    0.3880   -2.5159 C   0  0  0  0  0  0  0  0  0  0  0  0
    6.3884    1.7358   -1.8938 C   0  0  0  0  0  0  0  0  0  0  0  0
    7.5955    2.6011   -2.1597 C   0  0  0  0  0  0  0  0  0  0  0  0
    8.4813    2.2457   -3.1316 C   0  0  0  0  0  0  0  0  0  0  0  0
    8.4079    0.9780   -3.7438 O   0  0  0  0  0  0  0  0  0  0  0  0
    7.4794    0.0469   -3.3388 C   0  0  0  0  0  0  0  0  0  0  0  0
    7.6741   -1.2048   -3.8102 N   0  0  0  0  0  0  0  0  0  0  0  0
    6.7653   -2.1264   -3.4538 C   0  0  0  0  0  0  0  0  0  0  0  0
    7.0439   -3.3686   -3.9215 O   0  0  0  0  0  0  0  0  0  0  0  0
    9.5627    3.0745   -3.7991 C   0  0  0  0  0  0  0  0  0  0  0  0
    9.7357    2.7266   -5.1095 N   0  0  0  0  0  0  0  0  0  0  0  0
   10.6613    3.3674   -5.8524 C   0  0  0  0  0  0  0  0  0  0  0  0
   11.4413    4.4017   -5.3775 C   0  0  0  0  0  0  0  0  0  0  0  0
   11.3006    4.7868   -4.0438 C   0  0  0  0  0  0  0  0  0  0  0  0
   10.3726    4.0892   -3.2215 C   0  0  0  0  0  0  0  0  0  0  0  0
   10.3825    4.4274   -1.8632 C   0  0  0  0  0  0  0  0  0  0  0  0
   11.1877    5.4395   -1.3463 C   0  0  0  0  0  0  0  0  0  0  0  0
   12.0330    6.1762   -2.1560 C   0  0  0  0  0  0  0  0  0  0  0  0
   12.0981    5.8330   -3.5086 C   0  0  0  0  0  0  0  0  0  0  0  0
   12.8317    7.1970   -1.7164 O   0  0  0  0  0  0  0  0  0  0  0  0
   12.8240    7.5099   -0.3069 C   0  0  2  0  0  0  0  0  0  0  0  0
   12.4236    6.3627    0.5943 C   0  0  0  0  0  0  0  0  0  0  0  0
   12.9957    6.0286    1.6149 O   0  0  0  0  0  0  0  0  0  0  0  0
   11.1918    5.6549    0.0983 C   0  0  0  0  0  0  0  0  0  0  0  0
   10.2723    5.3350    0.8284 O   0  0  0  0  0  0  0  0  0  0  0  0
   12.0625    8.7512   -0.0237 C   0  0  3  0  0  0  0  0  0  0  0  0
   10.6635    8.7656   -0.3372 O   0  0  0  0  0  0  0  0  0  0  0  0
   10.9920    8.8642    0.9721 C   0  0  0  0  0  0  0  0  0  0  0  0
   10.6718    8.1893    1.9450 O   0  0  0  0  0  0  0  0  0  0  0  0
   12.6455   10.0416   -0.2664 N   0  0  0  0  0  0  0  0  0  0  0  0
   12.6480   10.4380   -1.4353 O   0  0  0  0  0  0  0  0  0  0  0  0
   13.1298   10.6329    0.7058 O   0  0  0  0  0  0  0  0  0  0  0  0
    7.6015    3.8189   -1.4919 O   0  0  0  0  0  0  0  0  0  0  0  0
    7.3750    3.7871   -0.0585 C   0  0  1  0  0  0  0  0  0  0  0  0
    8.4502    3.1874    0.6605 O   0  0  0  0  0  0  0  0  0  0  0  0
    8.1526    2.9782    2.0442 C   0  0  1  0  0  0  0  0  0  0  0  0
    9.3169    2.3929    2.7930 C   0  0  0  0  0  0  0  0  0  0  0  0
   10.5037    3.1828    2.8448 O   0  0  0  0  0  0  0  0  0  0  0  0
   10.4457    1.9995    2.0133 O   0  0  0  0  0  0  0  0  0  0  0  0
    7.5824    4.1722    2.7941 C   0  0  0  0  0  0  0  0  0  0  0  0
    7.2967    4.1438    3.9854 O   0  0  0  0  0  0  0  0  0  0  0  0
    7.1846    5.3475    1.9264 C   0  0  0  0  0  0  0  0  0  0  0  0
    6.7900    6.3801    2.4507 O   0  0  0  0  0  0  0  0  0  0  0  0
    7.1199    5.2072    0.4233 C   0  0  0  0  0  0  0  0  0  0  0  0
    6.7535    6.1370   -0.2834 O   0  0  0  0  0  0  0  0  0  0  0  0
  1  2  2  0  0  0  0
  2  3  1  0  0  0  0
  2  7  1  0  0  0  0
  3  4  1  0  0  0  0
  4  5  1  0  0  0  0
  5  6  2  0  0  0  0
  5 15  1  0  0  0  0
  6  7  1  0  0  0  0
  6  8  1  0  0  0  0
  8  9  1  0  0  0  0
  8 13  2  0  0  0  0
  9 10  1  0  0  0  0
 10 11  2  0  0  0  0
 10 40  1  0  0  0  0
 11 12  1  0  0  0  0
 11 17  1  0  0  0  0
 12 13  1  0  0  0  0
 13 14  1  0  0  0  0
 14 15  2  0  0  0  0
 15 16  1  0  0  0  0
 17 18  2  0  0  0  0
 17 22  1  0  0  0  0
 18 19  1  0  0  0  0
 19 20  2  0  0  0  0
 20 21  1  0  0  0  0
 21 22  2  0  0  0  0
 21 26  1  0  0  0  0
 22 23  1  0  0  0  0
 23 24  2  0  0  0  0
 24 25  1  0  0  0  0
 24 31  1  0  0  0  0
 25 26  2  0  0  0  0
 25 27  1  0  0  0  0
 28 27  1  6  0  0  0
 28 29  1  0  0  0  0
 28 33  1  0  0  0  0
 29 30  2  0  0  0  0
 29 31  1  0  0  0  0
 31 32  2  0  0  0  0
 33 34  1  0  0  0  0
 33 35  1  0  0  0  0
 33 37  1  0  0  0  0
 34 35  1  0  0  0  0
 35 36  2  0  0  0  0
 37 38  2  0  0  0  0
 37 39  2  0  0  0  0
 41 40  1  6  0  0  0
 41 42  1  0  0  0  0
 41 51  1  0  0  0  0
 42 43  1  0  0  0  0
 43 47  1  0  0  0  0
 43 44  1  1  0  0  0
 44 45  1  0  0  0  0
 44 46  1  0  0  0  0
 45 46  1  0  0  0  0
 47 48  2  0  0  0  0
 47 49  1  0  0  0  0
 49 50  2  0  0  0  0
 49 51  1  0  0  0  0
 51 52  2  0  0  0  0
M  END
$$$$