
 OpenBabel11242001523D

 53 62  0  0  1  0  0  0  0  0999 V2000
    0.8564  -19.0760  -11.2235 O   0  0  0  0  0  0  0  0  0  0  0  0
   -0.0945  -19.6721  -10.4375 C   0  0  0  0  0  0  0  0  0  0  0  0
   -0.7133  -19.0414   -9.4317 C   0  0  0  0  0  0  0  0  0  0  0  0
   -0.4101  -17.7308   -9.0990 O   0  0  0  0  0  0  0  0  0  0  0  0
   -1.5558  -16.9693   -8.7298 C   0  0  2  0  0  0  0  0  0  0  0  0
   -1.1847  -15.6180   -8.3985 O   0  0  0  0  0  0  0  0  0  0  0  0
   -0.9700  -14.6928   -9.4058 C   0  0  0  0  0  0  0  0  0  0  0  0
   -0.6178  -13.4311   -9.0873 C   0  0  0  0  0  0  0  0  0  0  0  0
   -0.2839  -12.4691  -10.0239 O   0  0  0  0  0  0  0  0  0  0  0  0
   -0.0465  -12.8653  -11.3272 C   0  0  0  0  0  0  0  0  0  0  0  0
   -0.4064  -14.0813  -11.7662 C   0  0  0  0  0  0  0  0  0  0  0  0
   -1.0535  -15.0939  -10.8637 C   0  0  0  0  0  0  0  0  0  0  0  0
   -0.0959  -14.4426  -13.1541 C   0  0  0  0  0  0  0  0  0  0  0  0
   -0.4128  -15.6937  -13.5338 N   0  0  0  0  0  0  0  0  0  0  0  0
   -0.0530  -16.0392  -14.7780 C   0  0  0  0  0  0  0  0  0  0  0  0
   -0.3273  -17.2924  -15.1642 F   0  0  0  0  0  0  0  0  0  0  0  0
    0.5844  -15.2491  -15.6537 N   0  0  0  0  0  0  0  0  0  0  0  0
    0.8567  -14.0012  -15.2382 C   0  0  0  0  0  0  0  0  0  0  0  0
    0.5329  -13.5297  -13.9843 C   0  0  0  0  0  0  0  0  0  0  0  0
    0.8553  -12.1341  -13.5374 C   0  0  3  0  0  0  0  0  0  0  0  0
    0.6106  -11.9469  -12.1070 N   0  0  0  0  0  0  0  0  0  0  0  0
    0.0531  -11.1107  -14.3141 C   0  0  0  0  0  0  0  0  0  0  0  0
    0.2305   -9.6782  -14.0452 N   0  0  0  0  0  0  0  0  0  0  0  0
    0.6709  -10.2172  -15.2862 N   0  0  0  0  0  0  0  0  0  0  0  0
   -0.4064  -12.9699   -7.7133 C   0  0  0  0  0  0  0  0  0  0  0  0
    0.9095  -12.9457   -7.2730 C   0  0  0  0  0  0  0  0  0  0  0  0
    1.2047  -12.5066   -6.0482 N   0  3  0  0  0  0  0  0  0  0  0  0
    2.4915  -12.4975   -5.6542 F   0  0  0  0  0  0  0  0  0  0  0  0
    0.2806  -12.0753   -5.2075 N   0  0  0  0  0  0  0  0  0  0  0  0
   -1.0106  -12.0988   -5.5696 C   0  0  0  0  0  0  0  0  0  0  0  0
   -1.4198  -12.5472   -6.8381 C   0  0  0  0  0  0  0  0  0  0  0  0
   -2.7994  -12.5674   -7.1546 C   0  0  0  0  0  0  0  0  0  0  0  0
   -3.7524  -12.1971   -6.2006 C   0  0  0  0  0  0  0  0  0  0  0  0
   -3.3589  -11.7349   -4.9545 C   0  0  0  0  0  0  0  0  0  0  0  0
   -1.9927  -11.6828   -4.6664 C   0  0  0  0  0  0  0  0  0  0  0  0
   -1.6042  -11.2396   -3.4592 F   0  0  0  0  0  0  0  0  0  0  0  0
   -4.2341  -11.3535   -3.9670 O   0  0  0  0  0  0  0  0  0  0  0  0
   -5.6420  -11.3391   -4.3208 C   0  0  1  0  0  0  0  0  0  0  0  0
   -6.0867  -12.3568   -5.2798 C   0  0  0  0  0  0  0  0  0  0  0  0
   -7.0288  -13.1136   -5.1411 O   0  0  0  0  0  0  0  0  0  0  0  0
   -5.1821  -12.3635   -6.4861 C   0  0  0  0  0  0  0  0  0  0  0  0
   -5.6059  -12.4994   -7.6197 O   0  0  0  0  0  0  0  0  0  0  0  0
   -6.5341  -11.0287   -3.2791 O   0  0  0  0  0  0  0  0  0  0  0  0
   -6.3919  -10.0475   -4.3517 C   0  0  1  0  0  0  0  0  0  0  0  0
   -5.4008   -8.9696   -4.1710 O   0  0  0  0  0  0  0  0  0  0  0  0
   -6.6348   -8.7590   -3.7568 C   0  0  0  0  0  0  0  0  0  0  0  0
   -7.4225   -7.8797   -4.0064 O   0  0  0  0  0  0  0  0  0  0  0  0
   -2.1935  -17.5319   -7.4695 C   0  0  0  0  0  0  0  0  0  0  0  0
   -2.6085  -16.8647   -6.5304 O   0  0  0  0  0  0  0  0  0  0  0  0
   -2.2988  -19.0385   -7.4816 C   0  0  0  0  0  0  0  0  0  0  0  0
   -2.8247  -19.6234   -6.5490 O   0  0  0  0  0  0  0  0  0  0  0  0
   -1.7247  -19.8086   -8.6519 C   0  0  0  0  0  0  0  0  0  0  0  0
   -2.0960  -20.9359   -8.9266 O   0  0  0  0  0  0  0  0  0  0  0  0
  1  2  1  0  0  0  0
  2  3  2  0  0  0  0
  3  4  1  0  0  0  0
  3 52  1  0  0  0  0
  4  5  1  0  0  0  0
  5  6  1  1  0  0  0
  5 48  1  0  0  0  0
  6  7  1  0  0  0  0
  7  8  2  0  0  0  0
  7 12  1  0  0  0  0
  8  9  1  0  0  0  0
  8 25  1  0  0  0  0
  9 10  1  0  0  0  0
 10 11  2  0  0  0  0
 10 21  1  0  0  0  0
 11 12  1  0  0  0  0
 11 13  1  0  0  0  0
 13 14  2  0  0  0  0
 13 19  1  0  0  0  0
 14 15  1  0  0  0  0
 15 16  1  0  0  0  0
 15 17  2  0  0  0  0
 17 18  1  0  0  0  0
 18 19  2  0  0  0  0
 19 20  1  0  0  0  0
 20 21  1  0  0  0  0
 20 22  1  0  0  0  0
 22 23  1  0  0  0  0
 22 24  1  0  0  0  0
 23 24  1  0  0  0  0
 25 26  2  0  0  0  0
 25 31  1  0  0  0  0
 26 27  1  0  0  0  0
 27 28  1  0  0  0  0
 27 29  2  0  0  0  0
 29 30  1  0  0  0  0
 30 31  2  0  0  0  0
 30 35  1  0  0  0  0
 31 32  1  0  0  0  0
 32 33  2  0  0  0  0
 33 34  1  0  0  0  0
 33 41  1  0  0  0  0
 34 35  2  0  0  0  0
 34 37  1  0  0  0  0
 35 36  1  0  0  0  0
 38 37  1  1  0  0  0
 38 39  1  0  0  0  0
 38 43  1  0  0  0  0
 38 44  1  0  0  0  0
 39 40  2  0  0  0  0
 39 41  1  0  0  0  0
 41 42  2  0  0  0  0
 44 43  1  1  0  0  0
 44 45  1  0  0  0  0
 44 46  1  0  0  0  0
 45 46  1  0  0  0  0
 46 47  2  0  0  0  0
 48 49  2  0  0  0  0
 48 50  1  0  0  0  0
 50 51  2  0  0  0  0
 50 52  1  0  0  0  0
 52 53  2  0  0  0  0
M  CHG  1  27   1
M  END
$$$$