
 OpenBabel11222000513D

 55 63  0  0  1  0  0  0  0  0999 V2000
    2.7069    0.9711    0.6792 O   0  0  0  0  0  0  0  0  0  0  0  0
    1.6106    1.4085   -0.0096 C   0  0  0  0  0  0  0  0  0  0  0  0
    0.6264    2.1193    0.5555 C   0  0  0  0  0  0  0  0  0  0  0  0
    0.5838    2.3998    1.9171 O   0  0  0  0  0  0  0  0  0  0  0  0
    0.2696    3.7500    2.2309 C   0  0  2  0  0  0  0  0  0  0  0  0
    0.0448    3.9642    3.6832 O   0  0  0  0  0  0  0  0  0  0  0  0
    1.1083    4.3193    4.5118 C   0  0  0  0  0  0  0  0  0  0  0  0
    0.9838    5.0408    5.6735 C   0  0  0  0  0  0  0  0  0  0  0  0
    2.1126    5.3198    6.4434 O   0  0  0  0  0  0  0  0  0  0  0  0
    3.4250    5.0449    5.9434 C   0  0  3  0  0  0  0  0  0  0  0  0
    3.4605    3.7042    5.2573 C   0  0  3  0  0  0  0  0  0  0  0  0
    2.4582    3.7462    4.1064 C   0  0  0  0  0  0  0  0  0  0  0  0
    4.8717    3.3763    4.8288 C   0  0  0  0  0  0  0  0  0  0  0  0
    5.0789    2.4151    3.9923 N   0  0  0  0  0  0  0  0  0  0  0  0
    6.4083    2.1268    3.7227 C   0  0  0  0  0  0  0  0  0  0  0  0
    6.7795    1.9484    2.5753 O   0  0  0  0  0  0  0  0  0  0  0  0
    7.3078    2.1319    4.7689 N   0  0  0  0  0  0  0  0  0  0  0  0
    7.1297    3.0982    5.5895 C   0  0  0  0  0  0  0  0  0  0  0  0
    6.0413    4.1219    5.4349 C   0  0  3  0  0  0  0  0  0  0  0  0
    5.7173    4.8990    6.7141 C   0  0  3  0  0  0  0  0  0  0  0  0
    4.3363    5.0580    7.0190 O   0  3  0  0  0  0  0  0  0  0  0  0
    6.4017    6.2532    6.7059 C   0  0  0  0  0  0  0  0  0  0  0  0
    5.9947    7.1161    5.6400 O   0  0  0  0  0  0  0  0  0  0  0  0
    5.5540    7.3705    6.9905 O   0  0  0  0  0  0  0  0  0  0  0  0
    7.9459    3.2325    6.6333 O   0  0  0  0  0  0  0  0  0  0  0  0
   -0.2927    5.5940    6.3464 C   0  0  0  0  0  0  0  0  0  0  0  0
   -1.5356    5.3235    5.7751 C   0  0  0  0  0  0  0  0  0  0  0  0
   -2.6809    5.6858    6.3625 N   0  3  0  0  0  0  0  0  0  0  0  0
   -3.8518    5.3353    5.7953 F   0  0  0  0  0  0  0  0  0  0  0  0
   -2.7225    6.3419    7.4970 N   0  0  0  0  0  0  0  0  0  0  0  0
   -1.6038    6.6800    8.1277 C   0  0  0  0  0  0  0  0  0  0  0  0
   -0.3330    6.3469    7.5938 C   0  0  0  0  0  0  0  0  0  0  0  0
    0.7754    6.8109    8.3632 C   0  0  0  0  0  0  0  0  0  0  0  0
    0.6438    7.4553    9.6061 C   0  0  0  0  0  0  0  0  0  0  0  0
    1.8365    7.9257   10.3250 C   0  0  0  0  0  0  0  0  0  0  0  0
    2.9510    7.7765    9.8429 O   0  0  0  0  0  0  0  0  0  0  0  0
    1.5960    8.5849   11.6681 C   0  0  0  0  0  0  0  0  0  0  0  0
    2.4321    9.3336   12.1450 O   0  0  0  0  0  0  0  0  0  0  0  0
    0.2810    8.2247   12.3136 C   0  0  1  0  0  0  0  0  0  0  0  0
   -0.8049    8.2551   11.3613 O   0  0  0  0  0  0  0  0  0  0  0  0
   -0.6034    7.6877   10.1385 C   0  0  0  0  0  0  0  0  0  0  0  0
   -1.7224    7.3601    9.3621 C   0  0  0  0  0  0  0  0  0  0  0  0
   -3.0303    7.7149    9.8146 C   0  0  0  0  0  0  0  0  0  0  0  0
   -4.1418    7.9787   10.0867 N   0  0  0  0  0  0  0  0  0  0  0  0
    0.2647    6.9409   13.0907 C   0  0  1  0  0  0  0  0  0  0  0  0
   -1.0373    6.5243   13.5568 O   0  0  0  0  0  0  0  0  0  0  0  0
    1.0966    5.9039   12.5858 O   0  0  0  0  0  0  0  0  0  0  0  0
    1.3951    6.3771   13.8238 C   0  0  0  0  0  0  0  0  0  0  0  0
    1.4294    5.7630   14.8699 O   0  0  0  0  0  0  0  0  0  0  0  0
   -0.9898    4.2750    1.5516 C   0  0  0  0  0  0  0  0  0  0  0  0
   -1.6825    5.1709    2.0261 O   0  0  0  0  0  0  0  0  0  0  0  0
   -1.2890    3.6864    0.1906 C   0  0  0  0  0  0  0  0  0  0  0  0
   -2.1946    4.1617   -0.4767 O   0  0  0  0  0  0  0  0  0  0  0  0
   -0.4449    2.5728   -0.3672 C   0  0  0  0  0  0  0  0  0  0  0  0
   -0.6099    2.1486   -1.4980 O   0  0  0  0  0  0  0  0  0  0  0  0
  1  2  1  0  0  0  0
  2  3  2  0  0  0  0
  3  4  1  0  0  0  0
  3 54  1  0  0  0  0
  4  5  1  0  0  0  0
  5  6  1  1  0  0  0
  5 50  1  0  0  0  0
  6  7  1  0  0  0  0
  7  8  2  0  0  0  0
  7 12  1  0  0  0  0
  8  9  1  0  0  0  0
  8 26  1  0  0  0  0
  9 10  1  0  0  0  0
 10 11  1  0  0  0  0
 10 21  1  0  0  0  0
 11 12  1  0  0  0  0
 11 13  1  0  0  0  0
 13 14  2  0  0  0  0
 13 19  1  0  0  0  0
 14 15  1  0  0  0  0
 15 16  2  0  0  0  0
 15 17  1  0  0  0  0
 17 18  2  0  0  0  0
 18 19  1  0  0  0  0
 18 25  1  0  0  0  0
 19 20  1  0  0  0  0
 20 21  1  0  0  0  0
 20 22  1  0  0  0  0
 22 23  1  0  0  0  0
 22 24  1  0  0  0  0
 23 24  1  0  0  0  0
 26 27  2  0  0  0  0
 26 32  1  0  0  0  0
 27 28  1  0  0  0  0
 28 29  1  0  0  0  0
 28 30  2  0  0  0  0
 30 31  1  0  0  0  0
 31 32  2  0  0  0  0
 31 42  1  0  0  0  0
 32 33  1  0  0  0  0
 33 34  2  0  0  0  0
 34 35  1  0  0  0  0
 34 41  1  0  0  0  0
 35 36  2  0  0  0  0
 35 37  1  0  0  0  0
 37 38  2  0  0  0  0
 39 37  1  6  0  0  0
 39 40  1  0  0  0  0
 39 45  1  0  0  0  0
 40 41  1  0  0  0  0
 41 42  2  0  0  0  0
 42 43  1  0  0  0  0
 43 44  3  0  0  0  0
 45 46  1  1  0  0  0
 45 47  1  0  0  0  0
 45 48  1  0  0  0  0
 47 48  1  0  0  0  0
 48 49  2  0  0  0  0
 50 51  2  0  0  0  0
 50 52  1  0  0  0  0
 52 53  2  0  0  0  0
 52 54  1  0  0  0  0
 54 55  2  0  0  0  0
M  CHG  2  21   1  28   1
M  END
$$$$