
 OpenBabel10232011403D

 86100  0  0  1  0  0  0  0  0999 V2000
    1.5662   -0.5484   -3.2528 O   0  0  0  0  0  0  0  0  0  0  0  0
    1.6251   -0.2175   -1.8476 C   0  0  3  0  0  0  0  0  0  0  0  0
    2.4656    1.0611   -1.6055 C   0  0  3  0  0  0  0  0  0  0  0  0
    3.8482    0.8174   -1.9531 O   0  0  0  0  0  0  0  0  0  0  0  0
    4.4447   -0.3156   -1.4834 C   0  0  0  0  0  0  0  0  0  0  0  0
    3.7179   -1.3814   -0.9813 C   0  0  0  0  0  0  0  0  0  0  0  0
    2.2299   -1.4362   -1.1314 C   0  0  3  0  0  0  0  0  0  0  0  0
    1.9350   -2.6518   -1.8548 O   0  0  0  0  0  0  0  0  0  0  0  0
    4.4176   -2.4094   -0.3421 C   0  0  0  0  0  0  0  0  0  0  0  0
    5.8291   -2.4726   -0.2420 C   0  0  0  0  0  0  0  0  0  0  0  0
    6.5722   -1.4971   -0.9520 C   0  0  0  0  0  0  0  0  0  0  0  0
    5.8389   -0.4137   -1.5157 C   0  0  0  0  0  0  0  0  0  0  0  0
    6.5181    0.6062   -2.0811 F   0  0  0  0  0  0  0  0  0  0  0  0
    7.9647   -1.7095   -1.0109 C   0  0  0  0  0  0  0  0  0  0  0  0
    9.0136   -0.6788   -1.9245 Cl  0  0  0  0  0  0  0  0  0  0  0  0
    8.6063   -2.8111   -0.3830 C   0  0  0  0  0  0  0  0  0  0  0  0
    7.9370   -3.7208    0.4528 C   0  0  0  0  0  0  0  0  0  0  0  0
    6.5363   -3.4634    0.5211 C   0  0  0  0  0  0  0  0  0  0  0  0
    5.5585   -4.2548    1.7253 Cl  0  0  0  0  0  0  0  0  0  0  0  0
    8.6918   -4.8812    1.1398 C   0  0  0  0  0  0  0  0  0  0  0  0
    8.0413   -6.1346    1.3637 C   0  0  0  0  0  0  0  0  0  0  0  0
    8.5723   -7.2633    2.1396 C   0  0  0  0  0  0  0  0  0  0  0  0
    7.9625   -8.5648    2.7584 C   0  0  0  0  0  0  0  0  0  0  0  0
    8.8179   -9.4525    3.4344 C   0  0  0  0  0  0  0  0  0  0  0  0
    8.3458  -10.3948    4.3831 N   0  0  0  0  0  0  0  0  0  0  0  0
   10.1788   -9.2008    3.3450 C   0  0  0  0  0  0  0  0  0  0  0  0
   10.7093   -8.1168    2.7798 N   0  0  0  0  0  0  0  0  0  0  0  0
    9.9718   -7.1216    2.2930 N   0  3  0  0  0  0  0  0  0  0  0  0
   10.6701   -5.9768    1.9362 N   0  3  0  0  0  0  0  0  0  0  0  0
   10.0521   -4.8210    1.5563 C   0  0  0  0  0  0  0  0  0  0  0  0
   10.8631   -3.5426    1.6118 C   0  0  0  0  0  0  0  0  0  0  0  0
   12.4033   -6.0602    1.9344 Cl  0  0  0  0  0  0  0  0  0  0  0  0
    6.3808   -9.0418    2.7581 N   0  3  0  0  0  0  0  0  0  0  0  0
    5.9598  -10.4023    2.8083 N   0  3  0  0  0  0  0  0  0  0  0  0
    6.9728  -11.6837    2.2326 Cl  0  0  0  0  0  0  0  0  0  0  0  0
    4.6215  -10.7748    2.9848 C   0  0  0  0  0  0  0  0  0  0  0  0
    3.5167   -9.8816    2.8826 C   0  0  0  0  0  0  0  0  0  0  0  0
    3.8967   -8.5629    2.6855 C   0  0  0  0  0  0  0  0  0  0  0  0
    5.3219   -8.1473    2.7564 C   0  0  0  0  0  0  0  0  0  0  0  0
    5.6086   -6.7949    2.8460 N   0  0  0  0  0  0  0  0  0  0  0  0
    2.9115   -7.6938    2.4279 N   0  0  0  0  0  0  0  0  0  0  0  0
    1.5939   -7.9848    2.2895 N   0  3  0  0  0  0  0  0  0  0  0  0
    1.0994   -9.2412    2.5643 C   0  0  0  0  0  0  0  0  0  0  0  0
    2.1023  -10.1890    2.9141 N   0  3  0  0  0  0  0  0  0  0  0  0
    1.6843  -11.4417    3.3144 N   0  0  0  0  0  0  0  0  0  0  0  0
    0.3624  -11.7752    3.3755 N   0  3  0  0  0  0  0  0  0  0  0  0
   -0.0748  -13.1193    3.9055 C   0  0  0  0  0  0  0  0  0  0  0  0
   -0.5698  -10.9105    2.9529 C   0  0  0  0  0  0  0  0  0  0  0  0
   -0.2150   -9.6742    2.5401 N   0  3  0  0  0  0  0  0  0  0  0  0
   -1.5403   -8.7370    1.9756 Cl  0  0  0  0  0  0  0  0  0  0  0  0
    0.6587   -6.6434    1.7778 Cl  0  0  0  0  0  0  0  0  0  0  0  0
    2.2854    1.7448   -0.1925 C   0  0  3  0  0  0  0  0  0  0  0  0
    0.8082    2.1685   -0.0005 C   0  0  0  0  0  0  0  0  0  0  0  0
    0.5424    2.8567    1.3385 C   0  0  0  0  0  0  0  0  0  0  0  0
    1.4936    3.9789    1.6250 C   0  0  0  0  0  0  0  0  0  0  0  0
    2.7567    4.0029    1.0556 C   0  0  0  0  0  0  0  0  0  0  0  0
    3.2142    2.9981   -0.0022 C   0  0  3  0  0  0  0  0  0  0  0  0
    4.6928    2.6076    0.2703 C   0  0  3  0  0  0  0  0  0  0  0  0
    4.7339    1.5544    1.1495 F   0  0  0  0  0  0  0  0  0  0  0  0
    5.6023    3.7171    0.8143 C   0  0  0  0  0  0  0  0  0  0  0  0
    4.9522    5.0890    0.6582 C   0  0  3  0  0  0  0  0  0  0  0  0
    3.6553    5.0243    1.4420 C   0  0  0  0  0  0  0  0  0  0  0  0
    3.3756    5.9074    2.5208 C   0  0  0  0  0  0  0  0  0  0  0  0
    2.0348    5.9971    2.9974 C   0  0  0  0  0  0  0  0  0  0  0  0
    1.1335    5.0015    2.5283 C   0  0  0  0  0  0  0  0  0  0  0  0
    1.5373    7.0429    3.9630 C   0  0  0  0  0  0  0  0  0  0  0  0
    0.4878    6.7864    4.8705 C   0  0  0  0  0  0  0  0  0  0  0  0
   -0.0072    7.7707    5.7597 C   0  0  0  0  0  0  0  0  0  0  0  0
   -1.4124    7.6219    6.3375 C   0  0  3  0  0  0  0  0  0  0  0  0
   -2.3920    7.9294    5.1752 C   0  0  0  0  0  0  0  0  0  0  0  0
   -3.8535    7.9361    5.5925 C   0  0  0  0  0  0  0  0  0  0  0  0
   -4.0951    8.8717    6.7660 C   0  0  0  0  0  0  0  0  0  0  0  0
   -3.1939    8.5037    7.9505 C   0  0  3  0  0  0  0  0  0  0  0  0
   -1.6866    8.5200    7.5740 C   0  0  3  0  0  0  0  0  0  0  0  0
   -1.1289    9.9405    7.3562 C   0  0  0  0  0  0  0  0  0  0  0  0
    0.3698    9.9365    7.0301 C   0  0  3  0  0  0  0  0  0  0  0  0
    0.6878    8.9753    5.9093 C   0  0  0  0  0  0  0  0  0  0  0  0
    1.6830    9.2780    4.9843 C   0  0  0  0  0  0  0  0  0  0  0  0
    2.0151    8.3644    3.9820 C   0  0  0  0  0  0  0  0  0  0  0  0
    2.7826    8.8278    2.9855 F   0  0  0  0  0  0  0  0  0  0  0  0
    1.2186    9.5892    8.2628 C   0  0  0  0  0  0  0  0  0  0  0  0
   -3.5262    9.3880    9.1541 C   0  0  0  0  0  0  0  0  0  0  0  0
    4.5541    6.6527    3.1624 C   0  0  3  0  0  0  0  0  0  0  0  0
    5.9371    6.3408    2.5708 C   0  0  0  0  0  0  0  0  0  0  0  0
    5.8535    6.2507    1.0621 C   0  0  0  0  0  0  0  0  0  0  0  0
    4.6543    6.2480    4.9151 Cl  0  0  0  0  0  0  0  0  0  0  0  0
  1  2  1  0  0  0  0
  2  3  1  0  0  0  0
  2  7  1  0  0  0  0
  3  4  1  0  0  0  0
  3 52  1  0  0  0  0
  4  5  1  0  0  0  0
  5  6  2  0  0  0  0
  5 12  1  0  0  0  0
  6  7  1  0  0  0  0
  6  9  1  0  0  0  0
  7  8  1  0  0  0  0
  9 10  2  0  0  0  0
 10 11  1  0  0  0  0
 10 18  1  0  0  0  0
 11 12  2  0  0  0  0
 11 14  1  0  0  0  0
 12 13  1  0  0  0  0
 14 15  1  0  0  0  0
 14 16  2  0  0  0  0
 16 17  1  0  0  0  0
 17 18  2  0  0  0  0
 17 20  1  0  0  0  0
 18 19  1  0  0  0  0
 20 21  2  0  0  0  0
 20 30  1  0  0  0  0
 21 22  1  0  0  0  0
 22 23  2  0  0  0  0
 22 28  1  0  0  0  0
 23 24  1  0  0  0  0
 23 33  1  0  0  0  0
 24 25  1  0  0  0  0
 24 26  2  0  0  0  0
 26 27  1  0  0  0  0
 27 28  2  0  0  0  0
 28 29  1  0  0  0  0
 29 30  2  0  0  0  0
 29 32  1  0  0  0  0
 30 31  1  0  0  0  0
 33 34  2  0  0  0  0
 33 39  1  0  0  0  0
 34 35  1  0  0  0  0
 34 36  1  0  0  0  0
 36 37  2  0  0  0  0
 37 38  1  0  0  0  0
 37 44  1  0  0  0  0
 38 39  2  0  0  0  0
 38 41  1  0  0  0  0
 39 40  1  0  0  0  0
 41 42  2  0  0  0  0
 42 43  1  0  0  0  0
 42 51  1  0  0  0  0
 43 44  2  0  0  0  0
 43 49  1  0  0  0  0
 44 45  1  0  0  0  0
 45 46  2  0  0  0  0
 46 47  1  0  0  0  0
 46 48  1  0  0  0  0
 48 49  2  0  0  0  0
 49 50  1  0  0  0  0
 52 53  1  0  0  0  0
 52 57  1  0  0  0  0
 53 54  1  0  0  0  0
 54 55  1  0  0  0  0
 55 56  2  0  0  0  0
 55 65  1  0  0  0  0
 56 57  1  0  0  0  0
 56 62  1  0  0  0  0
 57 58  1  0  0  0  0
 58 59  1  0  0  0  0
 58 60  1  0  0  0  0
 60 61  1  0  0  0  0
 61 62  1  0  0  0  0
 61 85  1  0  0  0  0
 62 63  2  0  0  0  0
 63 64  1  0  0  0  0
 63 83  1  0  0  0  0
 64 65  2  0  0  0  0
 64 66  1  0  0  0  0
 66 67  2  0  0  0  0
 66 79  1  0  0  0  0
 67 68  1  0  0  0  0
 68 69  1  0  0  0  0
 68 77  2  0  0  0  0
 69 70  1  0  0  0  0
 69 74  1  0  0  0  0
 70 71  1  0  0  0  0
 71 72  1  0  0  0  0
 72 73  1  0  0  0  0
 73 74  1  0  0  0  0
 73 82  1  0  0  0  0
 74 75  1  0  0  0  0
 75 76  1  0  0  0  0
 76 77  1  0  0  0  0
 76 81  1  0  0  0  0
 77 78  1  0  0  0  0
 78 79  2  0  0  0  0
 79 80  1  0  0  0  0
 83 84  1  0  0  0  0
 83 86  1  0  0  0  0
 84 85  1  0  0  0  0
M  CHG  8  28   1  29   1  33   1  34   1  42   1  44   1  46   1  49   1
M  END
$$$$