
 OpenBabel11272002523D

 54 62  0  0  1  0  0  0  0  0999 V2000
   -1.4570   -2.6491   -3.7371 F   0  0  0  0  0  0  0  0  0  0  0  0
   -0.8406   -1.5687   -3.2209 C   0  0  0  0  0  0  0  0  0  0  0  0
    0.2223   -1.6879   -2.4226 C   0  0  0  0  0  0  0  0  0  0  0  0
    0.7034   -2.9438   -2.0826 O   0  0  0  0  0  0  0  0  0  0  0  0
    2.0428   -3.0124   -1.5894 C   0  0  2  0  0  0  0  0  0  0  0  0
    2.3722   -4.3472   -1.1596 O   0  0  0  0  0  0  0  0  0  0  0  0
    2.3105   -5.3385   -2.1331 C   0  0  0  0  0  0  0  0  0  0  0  0
    2.0106   -6.6288   -1.8477 C   0  0  0  0  0  0  0  0  0  0  0  0
    2.0628   -7.6277   -2.8402 O   0  0  0  0  0  0  0  0  0  0  0  0
    2.6493   -7.3676   -4.0712 C   0  0  0  0  0  0  0  0  0  0  0  0
    3.0078   -6.1221   -4.4183 C   0  0  0  0  0  0  0  0  0  0  0  0
    2.7670   -4.9559   -3.5186 C   0  0  0  0  0  0  0  0  0  0  0  0
    3.6623   -5.8134   -5.7294 C   0  0  3  0  0  0  0  0  0  0  0  0
    4.9844   -5.3811   -5.4598 O   0  0  0  0  0  0  0  0  0  0  0  0
    5.8159   -5.1473   -6.5102 C   0  0  0  0  0  0  0  0  0  0  0  0
    6.8612   -4.5341   -6.3677 O   0  0  0  0  0  0  0  0  0  0  0  0
    5.4374   -5.6601   -7.7066 O   0  0  0  0  0  0  0  0  0  0  0  0
    4.3811   -6.5981   -7.8797 C   0  0  3  0  0  0  0  0  0  0  0  0
    3.7807   -7.0128   -6.5865 C   0  0  0  0  0  0  0  0  0  0  0  0
    3.3955   -8.2468   -6.1870 C   0  0  0  0  0  0  0  0  0  0  0  0
    2.8534   -8.4322   -4.9181 O   0  3  0  0  0  0  0  0  0  0  0  0
    3.4761   -9.4537   -7.0458 C   0  0  0  0  0  0  0  0  0  0  0  0
    3.0296  -10.7324   -6.5637 O   0  0  0  0  0  0  0  0  0  0  0  0
    2.2865  -10.0439   -7.5877 O   0  0  0  0  0  0  0  0  0  0  0  0
    3.3375   -5.9878   -8.6103 O   0  0  0  0  0  0  0  0  0  0  0  0
    1.8016   -7.2088   -0.4855 C   0  0  0  0  0  0  0  0  0  0  0  0
    2.4470   -8.3925   -0.3658 N   0  0  0  0  0  0  0  0  0  0  0  0
    2.4603   -8.9545    0.8460 C   0  0  0  0  0  0  0  0  0  0  0  0
    3.0817  -10.1353    0.9607 F   0  0  0  0  0  0  0  0  0  0  0  0
    1.9105   -8.4382    1.9421 N   0  0  0  0  0  0  0  0  0  0  0  0
    1.2462   -7.2831    1.8247 C   0  0  0  0  0  0  0  0  0  0  0  0
    1.0969   -6.6263    0.5908 C   0  0  0  0  0  0  0  0  0  0  0  0
    0.2732   -5.4717    0.5407 C   0  0  0  0  0  0  0  0  0  0  0  0
   -0.2611   -4.9101    1.7076 C   0  0  0  0  0  0  0  0  0  0  0  0
   -1.0429   -3.6719    1.6430 C   0  0  0  0  0  0  0  0  0  0  0  0
   -1.2001   -3.0739    0.5886 O   0  0  0  0  0  0  0  0  0  0  0  0
   -1.5883   -3.1424    2.9501 C   0  0  0  0  0  0  0  0  0  0  0  0
   -2.5182   -2.3501    2.9564 O   0  0  0  0  0  0  0  0  0  0  0  0
   -0.8334   -3.6130    4.1696 C   0  0  1  0  0  0  0  0  0  0  0  0
   -0.4791   -5.0036    4.1255 O   0  0  0  0  0  0  0  0  0  0  0  0
   -0.0309   -5.5012    2.9348 C   0  0  0  0  0  0  0  0  0  0  0  0
    0.6856   -6.6993    2.9664 C   0  0  0  0  0  0  0  0  0  0  0  0
    0.8626   -7.3002    4.1559 F   0  0  0  0  0  0  0  0  0  0  0  0
    0.3812   -2.7667    4.4209 C   0  0  1  0  0  0  0  0  0  0  0  0
    1.3761   -2.7429    3.3772 O   0  0  0  0  0  0  0  0  0  0  0  0
    0.1605   -1.5057    5.0479 O   0  0  0  0  0  0  0  0  0  0  0  0
    0.7983   -2.4413    5.7831 C   0  0  0  0  0  0  0  0  0  0  0  0
    0.5104   -2.9140    6.8553 O   0  0  0  0  0  0  0  0  0  0  0  0
    2.2374   -2.0104   -0.4696 C   0  0  0  0  0  0  0  0  0  0  0  0
    2.5396   -2.2248    0.6915 O   0  0  0  0  0  0  0  0  0  0  0  0
    2.0025   -0.6252   -0.9880 C   0  0  0  0  0  0  0  0  0  0  0  0
    2.8289    0.2462   -0.7825 O   0  0  0  0  0  0  0  0  0  0  0  0
    0.8324   -0.4199   -1.9245 C   0  0  0  0  0  0  0  0  0  0  0  0
    0.4781    0.6938   -2.2691 O   0  0  0  0  0  0  0  0  0  0  0  0
  1  2  1  0  0  0  0
  2  3  2  0  0  0  0
  3  4  1  0  0  0  0
  3 53  1  0  0  0  0
  4  5  1  0  0  0  0
  5  6  1  1  0  0  0
  5 49  1  0  0  0  0
  6  7  1  0  0  0  0
  7  8  2  0  0  0  0
  7 12  1  0  0  0  0
  8  9  1  0  0  0  0
  8 26  1  0  0  0  0
  9 10  1  0  0  0  0
 10 11  2  0  0  0  0
 10 21  1  0  0  0  0
 11 12  1  0  0  0  0
 11 13  1  0  0  0  0
 13 14  1  0  0  0  0
 13 19  1  0  0  0  0
 14 15  1  0  0  0  0
 15 16  2  0  0  0  0
 15 17  1  0  0  0  0
 17 18  1  0  0  0  0
 18 19  1  0  0  0  0
 18 25  1  0  0  0  0
 19 20  2  0  0  0  0
 20 21  1  0  0  0  0
 20 22  1  0  0  0  0
 22 23  1  0  0  0  0
 22 24  1  0  0  0  0
 23 24  1  0  0  0  0
 26 27  2  0  0  0  0
 26 32  1  0  0  0  0
 27 28  1  0  0  0  0
 28 29  1  0  0  0  0
 28 30  2  0  0  0  0
 30 31  1  0  0  0  0
 31 32  2  0  0  0  0
 31 42  1  0  0  0  0
 32 33  1  0  0  0  0
 33 34  2  0  0  0  0
 34 35  1  0  0  0  0
 34 41  1  0  0  0  0
 35 36  2  0  0  0  0
 35 37  1  0  0  0  0
 37 38  2  0  0  0  0
 39 37  1  6  0  0  0
 39 40  1  0  0  0  0
 39 44  1  0  0  0  0
 40 41  1  0  0  0  0
 41 42  2  0  0  0  0
 42 43  1  0  0  0  0
 44 45  1  6  0  0  0
 44 46  1  0  0  0  0
 44 47  1  0  0  0  0
 46 47  1  0  0  0  0
 47 48  2  0  0  0  0
 49 50  2  0  0  0  0
 49 51  1  0  0  0  0
 51 52  2  0  0  0  0
 51 53  1  0  0  0  0
 53 54  2  0  0  0  0
M  CHG  1  21   1
M  END
$$$$