
 OpenBabel11212019093D

 55 63  0  0  1  0  0  0  0  0999 V2000
   -2.0833    0.8518   -3.6282 O   0  0  0  0  0  0  0  0  0  0  0  0
   -1.4160    0.8745   -2.4289 C   0  0  0  0  0  0  0  0  0  0  0  0
   -0.1841    0.3716   -2.2871 C   0  0  0  0  0  0  0  0  0  0  0  0
    0.4464   -0.2252   -3.3703 O   0  0  0  0  0  0  0  0  0  0  0  0
    1.8664   -0.2512   -3.3001 C   0  0  2  0  0  0  0  0  0  0  0  0
    2.4256   -0.8971   -4.4589 O   0  0  0  0  0  0  0  0  0  0  0  0
    2.1790   -0.2934   -5.6829 C   0  0  0  0  0  0  0  0  0  0  0  0
    2.0828   -1.0363   -6.8020 C   0  0  0  0  0  0  0  0  0  0  0  0
    1.9273   -0.4840   -8.0735 O   0  0  0  0  0  0  0  0  0  0  0  0
    2.0335    0.9009   -8.2352 C   0  0  0  0  0  0  0  0  0  0  0  0
    2.1878    1.7194   -7.1763 C   0  0  0  0  0  0  0  0  0  0  0  0
    2.1718    1.2107   -5.7617 C   0  0  0  0  0  0  0  0  0  0  0  0
    2.4180    3.1989   -7.3396 C   0  0  3  0  0  0  0  0  0  0  0  0
    3.7255    3.4604   -6.8541 O   0  0  0  0  0  0  0  0  0  0  0  0
    4.1948    4.7335   -6.9580 C   0  0  0  0  0  0  0  0  0  0  0  0
    5.1785    5.0993   -6.3378 O   0  0  0  0  0  0  0  0  0  0  0  0
    3.4951    5.5510   -7.7796 O   0  0  0  0  0  0  0  0  0  0  0  0
    2.7304    5.0556   -8.8712 C   0  0  3  0  0  0  0  0  0  0  0  0
    2.4354    3.6027   -8.7627 C   0  0  0  0  0  0  0  0  0  0  0  0
    2.2388    2.7358   -9.7795 C   0  0  0  0  0  0  0  0  0  0  0  0
    2.0112    1.3933   -9.5206 O   0  3  0  0  0  0  0  0  0  0  0  0
    2.2875    3.1141  -11.2102 C   0  0  0  0  0  0  0  0  0  0  0  0
    3.5028    2.9801  -11.9584 O   0  0  0  0  0  0  0  0  0  0  0  0
    2.3962    2.0974  -12.2232 O   0  0  0  0  0  0  0  0  0  0  0  0
    1.4610    5.6761   -8.8564 O   0  0  0  0  0  0  0  0  0  0  0  0
    2.2632   -2.5019   -6.7774 C   0  0  0  0  0  0  0  0  0  0  0  0
    3.5467   -2.9845   -7.0099 C   0  0  0  0  0  0  0  0  0  0  0  0
    3.7907   -4.2959   -7.0157 N   0  3  0  0  0  0  0  0  0  0  0  0
    5.0446   -4.7303   -7.2437 F   0  0  0  0  0  0  0  0  0  0  0  0
    2.8451   -5.1877   -6.8234 N   0  0  0  0  0  0  0  0  0  0  0  0
    1.5998   -4.8029   -6.5159 C   0  0  0  0  0  0  0  0  0  0  0  0
    1.2519   -3.4345   -6.4731 C   0  0  0  0  0  0  0  0  0  0  0  0
   -0.0706   -3.0745   -6.1308 C   0  0  0  0  0  0  0  0  0  0  0  0
   -1.0164   -4.0529   -5.8065 C   0  0  0  0  0  0  0  0  0  0  0  0
   -2.3981   -3.6702   -5.4854 C   0  0  0  0  0  0  0  0  0  0  0  0
   -2.7912   -2.5336   -5.6933 O   0  0  0  0  0  0  0  0  0  0  0  0
   -3.2994   -4.7554   -4.9346 C   0  0  0  0  0  0  0  0  0  0  0  0
   -4.5048   -4.5832   -4.8429 O   0  0  0  0  0  0  0  0  0  0  0  0
   -2.5681   -6.0031   -4.5029 C   0  0  1  0  0  0  0  0  0  0  0  0
   -1.5405   -6.3864   -5.4362 O   0  0  0  0  0  0  0  0  0  0  0  0
   -0.6684   -5.3955   -5.8115 C   0  0  0  0  0  0  0  0  0  0  0  0
    0.6251   -5.7767   -6.2151 C   0  0  0  0  0  0  0  0  0  0  0  0
    0.9145   -7.1540   -6.3612 N   0  0  0  0  0  0  0  0  0  0  0  0
    1.7390   -7.5288   -5.5047 N   0  0  0  0  0  0  0  0  0  0  0  0
   -2.0169   -5.8739   -3.1158 C   0  0  1  0  0  0  0  0  0  0  0  0
   -1.0739   -4.7927   -2.8737 O   0  0  0  0  0  0  0  0  0  0  0  0
   -2.9395   -6.1314   -2.0651 O   0  0  0  0  0  0  0  0  0  0  0  0
   -1.9158   -7.0029   -2.1844 C   0  0  0  0  0  0  0  0  0  0  0  0
   -1.0142   -7.2536   -1.4158 O   0  0  0  0  0  0  0  0  0  0  0  0
    2.2794   -1.0140   -2.0620 C   0  0  0  0  0  0  0  0  0  0  0  0
    2.9395   -2.0401   -2.0348 O   0  0  0  0  0  0  0  0  0  0  0  0
    1.7546   -0.3403   -0.8228 C   0  0  0  0  0  0  0  0  0  0  0  0
    2.4163   -0.3516    0.1992 O   0  0  0  0  0  0  0  0  0  0  0  0
    0.4528    0.4371   -0.9337 C   0  0  0  0  0  0  0  0  0  0  0  0
    0.0091    1.0876   -0.0045 O   0  0  0  0  0  0  0  0  0  0  0  0
  1  2  1  0  0  0  0
  2  3  2  0  0  0  0
  3  4  1  0  0  0  0
  3 54  1  0  0  0  0
  4  5  1  0  0  0  0
  5  6  1  6  0  0  0
  5 50  1  0  0  0  0
  6  7  1  0  0  0  0
  7  8  2  0  0  0  0
  7 12  1  0  0  0  0
  8  9  1  0  0  0  0
  8 26  1  0  0  0  0
  9 10  1  0  0  0  0
 10 11  2  0  0  0  0
 10 21  1  0  0  0  0
 11 12  1  0  0  0  0
 11 13  1  0  0  0  0
 13 14  1  0  0  0  0
 13 19  1  0  0  0  0
 14 15  1  0  0  0  0
 15 16  2  0  0  0  0
 15 17  1  0  0  0  0
 17 18  1  0  0  0  0
 18 19  1  0  0  0  0
 18 25  1  0  0  0  0
 19 20  2  0  0  0  0
 20 21  1  0  0  0  0
 20 22  1  0  0  0  0
 22 23  1  0  0  0  0
 22 24  1  0  0  0  0
 23 24  1  0  0  0  0
 26 27  2  0  0  0  0
 26 32  1  0  0  0  0
 27 28  1  0  0  0  0
 28 29  1  0  0  0  0
 28 30  2  0  0  0  0
 30 31  1  0  0  0  0
 31 32  2  0  0  0  0
 31 42  1  0  0  0  0
 32 33  1  0  0  0  0
 33 34  2  0  0  0  0
 34 35  1  0  0  0  0
 34 41  1  0  0  0  0
 35 36  2  0  0  0  0
 35 37  1  0  0  0  0
 37 38  2  0  0  0  0
 39 37  1  6  0  0  0
 39 40  1  0  0  0  0
 39 45  1  0  0  0  0
 40 41  1  0  0  0  0
 41 42  2  0  0  0  0
 42 43  1  0  0  0  0
 43 44  2  0  0  0  0
 45 46  1  1  0  0  0
 45 47  1  0  0  0  0
 45 48  1  0  0  0  0
 47 48  1  0  0  0  0
 48 49  2  0  0  0  0
 50 51  2  0  0  0  0
 50 52  1  0  0  0  0
 52 53  2  0  0  0  0
 52 54  1  0  0  0  0
 54 55  2  0  0  0  0
M  CHG  2  21   1  28   1
M  END
$$$$