
 OpenBabel12052008313D

 54 62  0  0  1  0  0  0  0  0999 V2000
    3.9677    6.6149   -4.4507 O   0  0  0  0  0  0  0  0  0  0  0  0
    3.4269    5.3542   -4.4867 C   0  0  0  0  0  0  0  0  0  0  0  0
    3.1853    4.6437   -3.3786 C   0  0  0  0  0  0  0  0  0  0  0  0
    3.5182    5.1513   -2.1334 O   0  0  0  0  0  0  0  0  0  0  0  0
    2.7731    4.6324   -1.0388 C   0  0  2  0  0  0  0  0  0  0  0  0
    3.2526    5.2038    0.2105 O   0  0  0  0  0  0  0  0  0  0  0  0
    3.1922    6.5850    0.3652 C   0  0  0  0  0  0  0  0  0  0  0  0
    4.0845    7.2463    1.1379 C   0  0  0  0  0  0  0  0  0  0  0  0
    4.0139    8.6280    1.3729 O   0  0  0  0  0  0  0  0  0  0  0  0
    2.9847    9.3833    0.7904 C   0  0  0  0  0  0  0  0  0  0  0  0
    2.0382    8.7931    0.0368 C   0  0  0  0  0  0  0  0  0  0  0  0
    2.0341    7.3212   -0.2571 C   0  0  0  0  0  0  0  0  0  0  0  0
    0.9451    9.5776   -0.6313 C   0  0  3  0  0  0  0  0  0  0  0  0
   -0.3005    9.1094   -0.1523 O   0  0  0  0  0  0  0  0  0  0  0  0
   -1.3913    9.6579   -0.7586 C   0  0  0  0  0  0  0  0  0  0  0  0
   -2.4751    9.1005   -0.7543 O   0  0  0  0  0  0  0  0  0  0  0  0
   -1.1620   10.8352   -1.3921 O   0  0  0  0  0  0  0  0  0  0  0  0
   -0.1471   11.7218   -0.9310 C   0  0  3  0  0  0  0  0  0  0  0  0
    0.9932   11.0119   -0.2858 C   0  0  0  0  0  0  0  0  0  0  0  0
    1.9605   11.5523    0.4886 C   0  0  0  0  0  0  0  0  0  0  0  0
    2.9718   10.7499    1.0081 O   0  3  0  0  0  0  0  0  0  0  0  0
    2.0088   12.9958    0.8325 C   0  0  0  0  0  0  0  0  0  0  0  0
    1.3612   13.4909    2.0128 O   0  0  0  0  0  0  0  0  0  0  0  0
    2.7996   13.4666    1.9370 O   0  0  0  0  0  0  0  0  0  0  0  0
    0.4358   12.3584   -2.0531 O   0  0  0  0  0  0  0  0  0  0  0  0
    5.1617    6.5505    1.8898 C   0  0  0  0  0  0  0  0  0  0  0  0
    4.8669    6.1352    3.1882 C   0  0  0  0  0  0  0  0  0  0  0  0
    5.7864    5.5016    3.9262 N   0  3  0  0  0  0  0  0  0  0  0  0
    5.4472    5.0695    5.5353 Cl  0  0  0  0  0  0  0  0  0  0  0  0
    6.9824    5.2075    3.4622 N   0  0  0  0  0  0  0  0  0  0  0  0
    7.3309    5.5342    2.2127 C   0  0  0  0  0  0  0  0  0  0  0  0
    6.4461    6.2498    1.3768 C   0  0  0  0  0  0  0  0  0  0  0  0
    6.8968    6.6202    0.0885 C   0  0  0  0  0  0  0  0  0  0  0  0
    8.1709    6.2455   -0.3732 C   0  0  0  0  0  0  0  0  0  0  0  0
    8.6230    6.6654   -1.7030 C   0  0  0  0  0  0  0  0  0  0  0  0
    7.9311    7.3956   -2.3932 O   0  0  0  0  0  0  0  0  0  0  0  0
    9.9900    6.1931   -2.1392 C   0  0  0  0  0  0  0  0  0  0  0  0
   10.6206    6.8215   -2.9749 O   0  0  0  0  0  0  0  0  0  0  0  0
   10.4700    4.9484   -1.4331 C   0  0  1  0  0  0  0  0  0  0  0  0
   10.2243    5.0030   -0.0132 O   0  0  0  0  0  0  0  0  0  0  0  0
    9.0158    5.4836    0.4167 C   0  0  0  0  0  0  0  0  0  0  0  0
    8.5960    5.1640    1.7164 C   0  0  0  0  0  0  0  0  0  0  0  0
    9.6666    4.2590    2.7483 Cl  0  0  0  0  0  0  0  0  0  0  0  0
    9.9632    3.6859   -2.0861 C   0  0  1  0  0  0  0  0  0  0  0  0
   10.3338    3.4861   -3.4624 O   0  0  0  0  0  0  0  0  0  0  0  0
   10.0077    2.4991   -1.2771 O   0  0  0  0  0  0  0  0  0  0  0  0
    8.7994    2.9463   -1.6293 C   0  0  0  0  0  0  0  0  0  0  0  0
    7.8291    3.2853   -0.9665 O   0  0  0  0  0  0  0  0  0  0  0  0
    2.9059    3.1174   -0.9550 C   0  0  0  0  0  0  0  0  0  0  0  0
    3.1201    2.4900    0.0725 O   0  0  0  0  0  0  0  0  0  0  0  0
    2.7109    2.4298   -2.2895 C   0  0  0  0  0  0  0  0  0  0  0  0
    2.6457    1.2140   -2.3541 O   0  0  0  0  0  0  0  0  0  0  0  0
    2.6231    3.2739   -3.5434 C   0  0  0  0  0  0  0  0  0  0  0  0
    2.1147    2.8616   -4.5704 O   0  0  0  0  0  0  0  0  0  0  0  0
  1  2  1  0  0  0  0
  2  3  2  0  0  0  0
  3  4  1  0  0  0  0
  3 53  1  0  0  0  0
  4  5  1  0  0  0  0
  5  6  1  1  0  0  0
  5 49  1  0  0  0  0
  6  7  1  0  0  0  0
  7  8  2  0  0  0  0
  7 12  1  0  0  0  0
  8  9  1  0  0  0  0
  8 26  1  0  0  0  0
  9 10  1  0  0  0  0
 10 11  2  0  0  0  0
 10 21  1  0  0  0  0
 11 12  1  0  0  0  0
 11 13  1  0  0  0  0
 13 14  1  0  0  0  0
 13 19  1  0  0  0  0
 14 15  1  0  0  0  0
 15 16  2  0  0  0  0
 15 17  1  0  0  0  0
 17 18  1  0  0  0  0
 18 19  1  0  0  0  0
 18 25  1  0  0  0  0
 19 20  2  0  0  0  0
 20 21  1  0  0  0  0
 20 22  1  0  0  0  0
 22 23  1  0  0  0  0
 22 24  1  0  0  0  0
 23 24  1  0  0  0  0
 26 27  2  0  0  0  0
 26 32  1  0  0  0  0
 27 28  1  0  0  0  0
 28 29  1  0  0  0  0
 28 30  2  0  0  0  0
 30 31  1  0  0  0  0
 31 32  2  0  0  0  0
 31 42  1  0  0  0  0
 32 33  1  0  0  0  0
 33 34  2  0  0  0  0
 34 35  1  0  0  0  0
 34 41  1  0  0  0  0
 35 36  2  0  0  0  0
 35 37  1  0  0  0  0
 37 38  2  0  0  0  0
 39 37  1  6  0  0  0
 39 40  1  0  0  0  0
 39 44  1  0  0  0  0
 40 41  1  0  0  0  0
 41 42  2  0  0  0  0
 42 43  1  0  0  0  0
 44 45  1  6  0  0  0
 44 46  1  0  0  0  0
 44 47  1  0  0  0  0
 46 47  1  0  0  0  0
 47 48  2  0  0  0  0
 49 50  2  0  0  0  0
 49 51  1  0  0  0  0
 51 52  2  0  0  0  0
 51 53  1  0  0  0  0
 53 54  2  0  0  0  0
M  CHG  2  21   1  28   1
M  END
$$$$