
 OpenBabel09222006123D

 51 59  0  0  1  0  0  0  0  0999 V2000
    3.2555   -1.2687    5.8129 O   0  0  0  0  0  0  0  0  0  0  0  0
    3.5345   -0.1631    4.9490 C   0  0  0  0  0  0  0  0  0  0  0  0
    3.0639   -0.5190    3.5364 C   0  0  2  0  0  0  0  0  0  0  0  0
    3.8235   -1.6463    3.0551 O   0  0  0  0  0  0  0  0  0  0  0  0
    3.2970   -2.2360    1.8511 C   0  0  2  0  0  0  0  0  0  0  0  0
    4.0855   -3.3580    1.4135 O   0  0  0  0  0  0  0  0  0  0  0  0
    4.0951   -4.4836    2.2393 C   0  0  0  0  0  0  0  0  0  0  0  0
    4.3161   -5.7332    1.7716 C   0  0  0  0  0  0  0  0  0  0  0  0
    4.3557   -6.8714    2.5815 O   0  0  0  0  0  0  0  0  0  0  0  0
    4.0460   -6.7560    3.9256 C   0  0  0  0  0  0  0  0  0  0  0  0
    3.8306   -5.5280    4.5126 C   0  0  0  0  0  0  0  0  0  0  0  0
    3.9075   -4.2795    3.7102 C   0  0  0  0  0  0  0  0  0  0  0  0
    3.4845   -5.4991    5.8615 C   0  0  0  0  0  0  0  0  0  0  0  0
    3.2622   -4.2725    6.5092 N   0  0  0  0  0  0  0  0  0  0  0  0
    2.7581   -4.1455    7.7624 C   0  0  0  0  0  0  0  0  0  0  0  0
    2.5397   -3.0461    8.2628 O   0  0  0  0  0  0  0  0  0  0  0  0
    2.4679   -5.2910    8.4213 N   0  0  0  0  0  0  0  0  0  0  0  0
    2.9104   -6.6007    8.0130 C   0  0  0  0  0  0  0  0  0  0  0  0
    3.3222   -6.6852    6.5769 C   0  0  0  0  0  0  0  0  0  0  0  0
    3.5785   -7.9039    5.9286 C   0  0  0  0  0  0  0  0  0  0  0  0
    3.9403   -7.9208    4.6072 N   0  0  0  0  0  0  0  0  0  0  0  0
    3.4324   -9.2615    6.5953 C   0  0  0  0  0  0  0  0  0  0  0  0
    4.6058   -9.7996    7.2297 O   0  0  0  0  0  0  0  0  0  0  0  0
    3.4765   -9.3980    8.0272 O   0  0  0  0  0  0  0  0  0  0  0  0
    4.5120   -6.0271    0.3357 C   0  0  0  0  0  0  0  0  0  0  0  0
    3.3527   -6.2181   -0.3487 N   0  0  0  0  0  0  0  0  0  0  0  0
    3.4451   -6.4789   -1.6678 C   0  0  0  0  0  0  0  0  0  0  0  0
    4.6389   -6.5253   -2.3642 C   0  0  0  0  0  0  0  0  0  0  0  0
    5.8328   -6.3303   -1.6672 C   0  0  0  0  0  0  0  0  0  0  0  0
    5.7924   -6.1092   -0.2684 C   0  0  0  0  0  0  0  0  0  0  0  0
    7.0252   -6.0130    0.4182 C   0  0  0  0  0  0  0  0  0  0  0  0
    8.2405   -6.1067   -0.2730 C   0  0  0  0  0  0  0  0  0  0  0  0
    8.2677   -6.2255   -1.6578 C   0  0  0  0  0  0  0  0  0  0  0  0
    7.0651   -6.3613   -2.3477 C   0  0  0  0  0  0  0  0  0  0  0  0
    9.4026   -6.2316   -2.4221 O   0  0  0  0  0  0  0  0  0  0  0  0
   10.6175   -5.8566   -1.7656 C   0  0  2  0  0  0  0  0  0  0  0  0
   10.7402   -6.3792   -0.3706 C   0  0  0  0  0  0  0  0  0  0  0  0
   11.7145   -6.9540    0.0938 O   0  0  0  0  0  0  0  0  0  0  0  0
    9.5109   -6.1176    0.4623 C   0  0  0  0  0  0  0  0  0  0  0  0
    9.5879   -5.9260    1.6646 O   0  0  0  0  0  0  0  0  0  0  0  0
   10.8293   -4.3637   -1.8269 C   0  0  1  0  0  0  0  0  0  0  0  0
    9.8188   -3.5336   -1.2011 O   0  0  0  0  0  0  0  0  0  0  0  0
   12.1650   -3.9096   -1.5930 O   0  0  0  0  0  0  0  0  0  0  0  0
   11.6687   -3.7678   -2.8226 C   0  0  0  0  0  0  0  0  0  0  0  0
   12.0961   -4.1945   -3.8697 O   0  0  0  0  0  0  0  0  0  0  0  0
    3.2862   -1.1704    0.7612 C   0  0  0  0  0  0  0  0  0  0  0  0
    2.8025   -1.2779   -0.3572 O   0  0  0  0  0  0  0  0  0  0  0  0
    3.8107    0.1599    1.2478 C   0  0  0  0  0  0  0  0  0  0  0  0
    4.6386    0.7887    0.6130 O   0  0  0  0  0  0  0  0  0  0  0  0
    3.3288    0.6334    2.5999 C   0  0  0  0  0  0  0  0  0  0  0  0
    3.1213    1.8124    2.8381 O   0  0  0  0  0  0  0  0  0  0  0  0
  1  2  1  0  0  0  0
  3  4  1  0  0  0  0
  3 50  1  0  0  0  0
  3  2  1  1  0  0  0
  4  5  1  0  0  0  0
  5  6  1  6  0  0  0
  5 46  1  0  0  0  0
  6  7  1  0  0  0  0
  7  8  2  0  0  0  0
  7 12  1  0  0  0  0
  8  9  1  0  0  0  0
  8 25  1  0  0  0  0
  9 10  1  0  0  0  0
 10 11  2  0  0  0  0
 10 21  1  0  0  0  0
 11 12  1  0  0  0  0
 11 13  1  0  0  0  0
 13 14  1  0  0  0  0
 13 19  2  0  0  0  0
 14 15  1  0  0  0  0
 15 16  2  0  0  0  0
 15 17  1  0  0  0  0
 17 18  1  0  0  0  0
 18 19  1  0  0  0  0
 19 20  1  0  0  0  0
 20 21  2  0  0  0  0
 20 22  1  0  0  0  0
 22 23  1  0  0  0  0
 22 24  1  0  0  0  0
 23 24  1  0  0  0  0
 25 26  2  0  0  0  0
 25 30  1  0  0  0  0
 26 27  1  0  0  0  0
 27 28  2  0  0  0  0
 28 29  1  0  0  0  0
 29 30  2  0  0  0  0
 29 34  1  0  0  0  0
 30 31  1  0  0  0  0
 31 32  2  0  0  0  0
 32 33  1  0  0  0  0
 32 39  1  0  0  0  0
 33 34  2  0  0  0  0
 33 35  1  0  0  0  0
 36 35  1  1  0  0  0
 36 37  1  0  0  0  0
 36 41  1  0  0  0  0
 37 38  2  0  0  0  0
 37 39  1  0  0  0  0
 39 40  2  0  0  0  0
 41 42  1  1  0  0  0
 41 43  1  0  0  0  0
 41 44  1  0  0  0  0
 43 44  1  0  0  0  0
 44 45  2  0  0  0  0
 46 47  2  0  0  0  0
 46 48  1  0  0  0  0
 48 49  2  0  0  0  0
 48 50  1  0  0  0  0
 50 51  2  0  0  0  0
M  END
$$$$