
 OpenBabel11252017123D

 53 62  0  0  1  0  0  0  0  0999 V2000
   -5.3554  -20.0353   -2.7178 O   0  0  0  0  0  0  0  0  0  0  0  0
   -5.3701  -20.1172   -1.3493 C   0  0  0  0  0  0  0  0  0  0  0  0
   -4.9220  -19.1369   -0.5566 C   0  0  0  0  0  0  0  0  0  0  0  0
   -4.3910  -17.9737   -1.0989 O   0  0  0  0  0  0  0  0  0  0  0  0
   -5.3360  -16.9327   -0.9067 C   0  0  2  0  0  0  0  0  0  0  0  0
   -4.8675  -15.6908   -1.4936 O   0  0  0  0  0  0  0  0  0  0  0  0
   -5.1594  -15.4401   -2.8319 C   0  0  0  0  0  0  0  0  0  0  0  0
   -4.7940  -14.2762   -3.4134 C   0  0  0  0  0  0  0  0  0  0  0  0
   -5.0975  -13.9558   -4.7454 O   0  0  0  0  0  0  0  0  0  0  0  0
   -5.7461  -14.9027   -5.5555 C   0  0  0  0  0  0  0  0  0  0  0  0
   -6.0885  -16.1098   -5.0669 C   0  0  0  0  0  0  0  0  0  0  0  0
   -5.8829  -16.4884   -3.6335 C   0  0  0  0  0  0  0  0  0  0  0  0
   -6.6876  -17.1875   -5.9299 C   0  0  3  0  0  0  0  0  0  0  0  0
   -7.8930  -17.6258   -5.3518 O   0  0  0  0  0  0  0  0  0  0  0  0
   -8.4831  -18.6684   -6.0021 C   0  0  0  0  0  0  0  0  0  0  0  0
   -9.1557  -19.4845   -5.3944 O   0  0  0  0  0  0  0  0  0  0  0  0
   -8.2886  -18.7269   -7.3459 O   0  0  0  0  0  0  0  0  0  0  0  0
   -7.7413  -17.7085   -8.0342 C   0  0  0  0  0  0  0  0  0  0  0  0
   -7.7542  -17.6488   -9.2545 O   0  0  0  0  0  0  0  0  0  0  0  0
   -7.0334  -16.6838   -7.2632 C   0  0  0  0  0  0  0  0  0  0  0  0
   -6.7121  -15.4475   -7.7059 C   0  0  0  0  0  0  0  0  0  0  0  0
   -6.0124  -14.5746   -6.8721 O   0  3  0  0  0  0  0  0  0  0  0  0
   -7.0224  -14.9064   -9.0556 C   0  0  0  0  0  0  0  0  0  0  0  0
   -6.6418  -13.5539   -9.3827 O   0  0  0  0  0  0  0  0  0  0  0  0
   -5.9738  -14.6665  -10.0040 O   0  0  0  0  0  0  0  0  0  0  0  0
   -3.9807  -13.2686   -2.6876 C   0  0  0  0  0  0  0  0  0  0  0  0
   -2.5924  -13.4031   -2.7255 C   0  0  0  0  0  0  0  0  0  0  0  0
   -1.8024  -12.5532   -2.0588 N   0  3  0  0  0  0  0  0  0  0  0  0
   -0.4652  -12.7013   -2.1314 F   0  0  0  0  0  0  0  0  0  0  0  0
   -2.2815  -11.5630   -1.3322 N   0  0  0  0  0  0  0  0  0  0  0  0
   -3.6018  -11.3880   -1.2330 C   0  0  0  0  0  0  0  0  0  0  0  0
   -4.5177  -12.2233   -1.9037 C   0  0  0  0  0  0  0  0  0  0  0  0
   -5.9007  -11.9591   -1.7511 C   0  0  0  0  0  0  0  0  0  0  0  0
   -6.3547  -10.8874   -0.9605 C   0  0  0  0  0  0  0  0  0  0  0  0
   -5.4524  -10.0821   -0.2948 C   0  0  0  0  0  0  0  0  0  0  0  0
   -4.0907  -10.3425   -0.4469 C   0  0  0  0  0  0  0  0  0  0  0  0
   -3.2085   -9.5453    0.1761 F   0  0  0  0  0  0  0  0  0  0  0  0
   -5.8095   -9.0029    0.4619 O   0  0  0  0  0  0  0  0  0  0  0  0
   -7.1960   -8.9196    0.8724 C   0  0  1  0  0  0  0  0  0  0  0  0
   -8.2153   -9.3686   -0.0903 C   0  0  0  0  0  0  0  0  0  0  0  0
   -9.2889   -8.8210   -0.2579 O   0  0  0  0  0  0  0  0  0  0  0  0
   -7.7864  -10.5751   -0.8951 C   0  0  0  0  0  0  0  0  0  0  0  0
   -8.5806  -11.2562   -1.5249 O   0  0  0  0  0  0  0  0  0  0  0  0
   -7.4719   -9.1837    2.2229 O   0  0  0  0  0  0  0  0  0  0  0  0
   -7.5923   -7.7901    1.7788 C   0  0  1  0  0  0  0  0  0  0  0  0
   -6.3972   -6.9222    1.9221 O   0  0  0  0  0  0  0  0  0  0  0  0
   -7.2598   -6.9678    2.8999 C   0  0  0  0  0  0  0  0  0  0  0  0
   -7.8565   -6.0945    3.5122 O   0  0  0  0  0  0  0  0  0  0  0  0
   -5.6156  -16.6858    0.5691 C   0  0  0  0  0  0  0  0  0  0  0  0
   -5.9817  -15.5424    1.0732 N   0  0  0  0  0  0  0  0  0  0  0  0
   -5.5903  -17.9035    1.4670 C   0  0  0  0  0  0  0  0  0  0  0  0
   -6.0576  -17.8096    2.6710 N   0  0  0  0  0  0  0  0  0  0  0  0
   -4.9924  -19.1840    0.9426 C   0  0  0  0  0  0  0  0  0  0  0  0
  1  2  1  0  0  0  0
  2  3  2  0  0  0  0
  3  4  1  0  0  0  0
  3 53  1  0  0  0  0
  4  5  1  0  0  0  0
  5  6  1  1  0  0  0
  5 49  1  0  0  0  0
  6  7  1  0  0  0  0
  7  8  2  0  0  0  0
  7 12  1  0  0  0  0
  8  9  1  0  0  0  0
  8 26  1  0  0  0  0
  9 10  1  0  0  0  0
 10 11  2  0  0  0  0
 10 22  1  0  0  0  0
 11 12  1  0  0  0  0
 11 13  1  0  0  0  0
 13 14  1  0  0  0  0
 13 20  1  0  0  0  0
 14 15  1  0  0  0  0
 15 16  2  0  0  0  0
 15 17  1  0  0  0  0
 17 18  1  0  0  0  0
 18 19  2  0  0  0  0
 18 20  1  0  0  0  0
 20 21  2  0  0  0  0
 21 22  1  0  0  0  0
 21 23  1  0  0  0  0
 23 24  1  0  0  0  0
 23 25  1  0  0  0  0
 24 25  1  0  0  0  0
 26 27  2  0  0  0  0
 26 32  1  0  0  0  0
 27 28  1  0  0  0  0
 28 29  1  0  0  0  0
 28 30  2  0  0  0  0
 30 31  1  0  0  0  0
 31 32  2  0  0  0  0
 31 36  1  0  0  0  0
 32 33  1  0  0  0  0
 33 34  2  0  0  0  0
 34 35  1  0  0  0  0
 34 42  1  0  0  0  0
 35 36  2  0  0  0  0
 35 38  1  0  0  0  0
 36 37  1  0  0  0  0
 39 38  1  6  0  0  0
 39 40  1  0  0  0  0
 39 44  1  0  0  0  0
 39 45  1  0  0  0  0
 40 41  2  0  0  0  0
 40 42  1  0  0  0  0
 42 43  2  0  0  0  0
 45 44  1  1  0  0  0
 45 46  1  0  0  0  0
 45 47  1  0  0  0  0
 46 47  1  0  0  0  0
 47 48  2  0  0  0  0
 49 50  2  0  0  0  0
 49 51  1  0  0  0  0
 51 52  2  0  0  0  0
 51 53  1  0  0  0  0
M  CHG  2  22   1  28   1
M  END
$$$$