
 OpenBabel10252017513D

 98113  0  0  1  0  0  0  0  0999 V2000
    2.8841   -4.3482   -8.1350 C   0  0  0  0  0  0  0  0  0  0  0  0
    4.3314   -3.9600   -8.2911 N   0  3  0  0  0  0  0  0  0  0  0  0
    5.2586   -4.8982   -8.5335 C   0  0  0  0  0  0  0  0  0  0  0  0
    6.5573   -4.5506   -8.7009 N   0  3  0  0  0  0  0  0  0  0  0  0
    7.5974   -5.8875   -8.9726 Cl  0  0  0  0  0  0  0  0  0  0  0  0
    6.9733   -3.2353   -8.6399 C   0  0  0  0  0  0  0  0  0  0  0  0
    5.9938   -2.2567   -8.3433 N   0  3  0  0  0  0  0  0  0  0  0  0
    4.6964   -2.6631   -8.1852 N   0  0  0  0  0  0  0  0  0  0  0  0
    6.2914   -0.8664   -8.2241 C   0  0  0  0  0  0  0  0  0  0  0  0
    5.4081    0.1744   -7.9051 C   0  0  0  0  0  0  0  0  0  0  0  0
    5.7154    1.5327   -7.8429 N   0  3  0  0  0  0  0  0  0  0  0  0
    4.3091    2.4540   -7.6160 Cl  0  0  0  0  0  0  0  0  0  0  0  0
    7.0287    2.0630   -8.0724 N   0  3  0  0  0  0  0  0  0  0  0  0
    7.9213    1.0115   -8.4689 C   0  0  0  0  0  0  0  0  0  0  0  0
    7.5649   -0.4301   -8.4748 C   0  0  0  0  0  0  0  0  0  0  0  0
    8.4555   -1.3837   -8.7725 N   0  0  0  0  0  0  0  0  0  0  0  0
    8.2308   -2.7136   -8.8365 N   0  3  0  0  0  0  0  0  0  0  0  0
    9.6349   -3.6176   -9.2066 Cl  0  0  0  0  0  0  0  0  0  0  0  0
    9.2148    1.2284   -8.9121 N   0  0  0  0  0  0  0  0  0  0  0  0
    7.5082    3.7307   -8.0484 C   0  0  0  0  0  0  0  0  0  0  0  0
    8.8728    4.0282   -8.3275 C   0  0  0  0  0  0  0  0  0  0  0  0
    9.9908    3.2321   -7.9850 N   0  0  0  0  0  0  0  0  0  0  0  0
    9.2039    5.3352   -8.6698 C   0  0  0  0  0  0  0  0  0  0  0  0
    8.3492    6.3348   -8.7086 N   0  0  0  0  0  0  0  0  0  0  0  0
    7.1158    6.2287   -8.2676 N   0  3  0  0  0  0  0  0  0  0  0  0
    6.5767    4.9870   -7.8470 C   0  0  0  0  0  0  0  0  0  0  0  0
    5.2654    5.2506   -7.2082 C   0  0  0  0  0  0  0  0  0  0  0  0
    4.4646    6.4398   -7.2427 C   0  0  0  0  0  0  0  0  0  0  0  0
    3.0114    6.3873   -6.6735 C   0  0  0  0  0  0  0  0  0  0  0  0
    2.4870    5.1782   -6.1268 C   0  0  0  0  0  0  0  0  0  0  0  0
    1.1807    5.0091   -5.5866 C   0  0  0  0  0  0  0  0  0  0  0  0
    0.8173    3.3813   -5.0813 Cl  0  0  0  0  0  0  0  0  0  0  0  0
    0.3001    6.0624   -5.4135 C   0  0  0  0  0  0  0  0  0  0  0  0
    0.7910    7.3095   -5.9277 C   0  0  0  0  0  0  0  0  0  0  0  0
    2.0348    7.4099   -6.6250 C   0  0  0  0  0  0  0  0  0  0  0  0
    2.1892    8.8955   -7.5342 Cl  0  0  0  0  0  0  0  0  0  0  0  0
    0.0401    8.4190   -5.6580 C   0  0  0  0  0  0  0  0  0  0  0  0
   -1.0923    8.4254   -4.8603 C   0  0  0  0  0  0  0  0  0  0  0  0
   -1.6533    7.2295   -4.4246 C   0  0  0  0  0  0  0  0  0  0  0  0
   -0.9789    6.0734   -4.7638 C   0  0  0  0  0  0  0  0  0  0  0  0
   -1.5146    4.8746   -4.3909 F   0  0  0  0  0  0  0  0  0  0  0  0
   -2.8044    7.2374   -3.6869 O   0  0  0  0  0  0  0  0  0  0  0  0
   -3.0641    8.3866   -2.8045 C   0  0  3  0  0  0  0  0  0  0  0  0
   -2.0021    9.5428   -2.8888 C   0  0  3  0  0  0  0  0  0  0  0  0
   -1.6593    9.7029   -4.3947 C   0  0  3  0  0  0  0  0  0  0  0  0
   -0.8019   10.7537   -4.8127 O   0  0  0  0  0  0  0  0  0  0  0  0
   -0.8843    9.1073   -2.0603 O   0  0  0  0  0  0  0  0  0  0  0  0
   -0.0230   10.0277   -1.5264 C   0  0  0  0  0  0  0  0  0  0  0  0
    0.7411    9.6022   -0.4234 C   0  0  0  0  0  0  0  0  0  0  0  0
    0.4204    8.4609    0.2724 O   0  0  0  0  0  0  0  0  0  0  0  0
    1.7913   10.3753    0.0859 C   0  0  0  0  0  0  0  0  0  0  0  0
    2.5280    9.9502    1.1561 O   0  0  0  0  0  0  0  0  0  0  0  0
    2.0816   11.6060   -0.4748 C   0  0  0  0  0  0  0  0  0  0  0  0
    1.3065   12.0617   -1.5185 C   0  0  0  0  0  0  0  0  0  0  0  0
    0.2319   11.3130   -1.9967 C   0  0  0  0  0  0  0  0  0  0  0  0
   -0.5745   11.9836   -2.8740 O   0  0  0  0  0  0  0  0  0  0  0  0
    1.5195   13.2846   -2.0989 O   0  0  0  0  0  0  0  0  0  0  0  0
    3.0534   12.4185    0.0255 O   0  0  0  0  0  0  0  0  0  0  0  0
   -4.5488    8.9172   -2.9492 C   0  0  3  0  0  0  0  0  0  0  0  0
   -5.5506    7.7848   -2.6355 C   0  0  0  0  0  0  0  0  0  0  0  0
   -6.9944    8.1722   -2.9578 C   0  0  0  0  0  0  0  0  0  0  0  0
   -7.1291    8.5506   -4.4037 C   0  0  0  0  0  0  0  0  0  0  0  0
   -6.1439    9.3065   -5.0002 C   0  0  0  0  0  0  0  0  0  0  0  0
   -4.8271    9.5702   -4.3255 C   0  0  3  0  0  0  0  0  0  0  0  0
   -4.6251   11.1107   -4.3476 C   0  0  3  0  0  0  0  0  0  0  0  0
   -5.5220   11.6875   -3.4999 F   0  0  0  0  0  0  0  0  0  0  0  0
   -4.7852   11.7350   -5.7484 C   0  0  0  0  0  0  0  0  0  0  0  0
   -5.1580   10.6846   -6.8092 C   0  0  3  0  0  0  0  0  0  0  0  0
   -6.3272    9.8722   -6.2813 C   0  0  0  0  0  0  0  0  0  0  0  0
   -7.5408    9.7116   -6.9750 C   0  0  0  0  0  0  0  0  0  0  0  0
   -8.4547    8.7295   -6.4884 C   0  0  0  0  0  0  0  0  0  0  0  0
   -8.2389    8.2169   -5.1757 C   0  0  0  0  0  0  0  0  0  0  0  0
   -9.6143    8.2051   -7.2693 C   0  0  0  0  0  0  0  0  0  0  0  0
  -10.7976    7.7818   -6.6360 C   0  0  0  0  0  0  0  0  0  0  0  0
  -11.8741    7.2290   -7.3539 C   0  0  0  0  0  0  0  0  0  0  0  0
  -12.8980    6.3767   -6.6173 C   0  0  3  0  0  0  0  0  0  0  0  0
  -12.2266    5.0040   -6.3679 C   0  0  0  0  0  0  0  0  0  0  0  0
  -13.1559    3.9735   -5.7464 C   0  0  0  0  0  0  0  0  0  0  0  0
  -14.4472    3.8060   -6.5545 C   0  0  3  0  0  0  0  0  0  0  0  0
  -15.1537    5.1774   -6.6893 C   0  0  3  0  0  0  0  0  0  0  0  0
  -14.2383    6.2343   -7.3753 C   0  0  3  0  0  0  0  0  0  0  0  0
  -13.9960    5.9506   -8.8731 C   0  0  0  0  0  0  0  0  0  0  0  0
  -13.1245    7.0190   -9.5453 C   0  0  3  0  0  0  0  0  0  0  0  0
  -11.8714    7.2931   -8.7512 C   0  0  0  0  0  0  0  0  0  0  0  0
  -10.6918    7.6517   -9.3996 C   0  0  0  0  0  0  0  0  0  0  0  0
   -9.5679    8.0062   -8.6581 C   0  0  0  0  0  0  0  0  0  0  0  0
   -8.4091    8.1091   -9.3277 F   0  0  0  0  0  0  0  0  0  0  0  0
  -13.8896    8.3353   -9.7469 C   0  0  0  0  0  0  0  0  0  0  0  0
  -16.5139    5.0752   -7.3866 C   0  0  0  0  0  0  0  0  0  0  0  0
  -15.3181    2.7323   -5.8979 C   0  0  0  0  0  0  0  0  0  0  0  0
   -7.8026   10.6229   -8.1772 C   0  0  3  0  0  0  0  0  0  0  0  0
   -6.7971   11.7784   -8.3332 C   0  0  0  0  0  0  0  0  0  0  0  0
   -5.3787   11.2659   -8.1992 C   0  0  0  0  0  0  0  0  0  0  0  0
   -9.4229   11.3844   -8.0904 Cl  0  0  0  0  0  0  0  0  0  0  0  0
    5.1644    7.5408   -7.7853 C   0  0  0  0  0  0  0  0  0  0  0  0
    6.4403    7.4058   -8.2163 N   0  3  0  0  0  0  0  0  0  0  0  0
    7.2689    8.8628   -8.6973 Cl  0  0  0  0  0  0  0  0  0  0  0  0
    4.7084    8.7948   -7.9201 O   0  0  0  0  0  0  0  0  0  0  0  0
  1  2  1  0  0  0  0
  2  3  2  0  0  0  0
  2  8  1  0  0  0  0
  3  4  1  0  0  0  0
  4  5  1  0  0  0  0
  4  6  2  0  0  0  0
  6  7  1  0  0  0  0
  6 17  1  0  0  0  0
  7  8  2  0  0  0  0
  7  9  1  0  0  0  0
  9 10  2  0  0  0  0
  9 15  1  0  0  0  0
 10 11  1  0  0  0  0
 11 12  1  0  0  0  0
 11 13  2  0  0  0  0
 13 14  1  0  0  0  0
 13 20  1  0  0  0  0
 14 15  2  0  0  0  0
 14 19  1  0  0  0  0
 15 16  1  0  0  0  0
 16 17  2  0  0  0  0
 17 18  1  0  0  0  0
 20 21  2  0  0  0  0
 20 26  1  0  0  0  0
 21 22  1  0  0  0  0
 21 23  1  0  0  0  0
 23 24  2  0  0  0  0
 24 25  1  0  0  0  0
 25 26  2  0  0  0  0
 25 96  1  0  0  0  0
 26 27  1  0  0  0  0
 27 28  2  0  0  0  0
 28 29  1  0  0  0  0
 28 95  1  0  0  0  0
 29 30  2  0  0  0  0
 29 35  1  0  0  0  0
 30 31  1  0  0  0  0
 31 32  1  0  0  0  0
 31 33  2  0  0  0  0
 33 34  1  0  0  0  0
 33 40  1  0  0  0  0
 34 35  2  0  0  0  0
 34 37  1  0  0  0  0
 35 36  1  0  0  0  0
 37 38  2  0  0  0  0
 38 39  1  0  0  0  0
 38 45  1  0  0  0  0
 39 40  2  0  0  0  0
 39 42  1  0  0  0  0
 40 41  1  0  0  0  0
 42 43  1  0  0  0  0
 43 44  1  0  0  0  0
 43 59  1  0  0  0  0
 44 45  1  0  0  0  0
 44 47  1  0  0  0  0
 45 46  1  0  0  0  0
 47 48  1  0  0  0  0
 48 49  2  0  0  0  0
 48 55  1  0  0  0  0
 49 50  1  0  0  0  0
 49 51  1  0  0  0  0
 51 52  1  0  0  0  0
 51 53  2  0  0  0  0
 53 54  1  0  0  0  0
 53 58  1  0  0  0  0
 54 55  2  0  0  0  0
 54 57  1  0  0  0  0
 55 56  1  0  0  0  0
 59 60  1  0  0  0  0
 59 64  1  0  0  0  0
 60 61  1  0  0  0  0
 61 62  1  0  0  0  0
 62 63  2  0  0  0  0
 62 72  1  0  0  0  0
 63 64  1  0  0  0  0
 63 69  1  0  0  0  0
 64 65  1  0  0  0  0
 65 66  1  0  0  0  0
 65 67  1  0  0  0  0
 67 68  1  0  0  0  0
 68 69  1  0  0  0  0
 68 93  1  0  0  0  0
 69 70  2  0  0  0  0
 70 71  1  0  0  0  0
 70 91  1  0  0  0  0
 71 72  2  0  0  0  0
 71 73  1  0  0  0  0
 73 74  2  0  0  0  0
 73 86  1  0  0  0  0
 74 75  1  0  0  0  0
 75 76  1  0  0  0  0
 75 84  2  0  0  0  0
 76 77  1  0  0  0  0
 76 81  1  0  0  0  0
 77 78  1  0  0  0  0
 78 79  1  0  0  0  0
 79 80  1  0  0  0  0
 79 90  1  0  0  0  0
 80 81  1  0  0  0  0
 80 89  1  0  0  0  0
 81 82  1  0  0  0  0
 82 83  1  0  0  0  0
 83 84  1  0  0  0  0
 83 88  1  0  0  0  0
 84 85  1  0  0  0  0
 85 86  2  0  0  0  0
 86 87  1  0  0  0  0
 91 92  1  0  0  0  0
 91 94  1  0  0  0  0
 92 93  1  0  0  0  0
 95 96  2  0  0  0  0
 95 98  1  0  0  0  0
 96 97  1  0  0  0  0
M  CHG  8   2   1   4   1   7   1  11   1  13   1  17   1  25   1  96   1
M  END
$$$$