
 OpenBabel11272001473D

 54 62  0  0  1  0  0  0  0  0999 V2000
    3.2239    1.7567   -1.8111 O   0  0  0  0  0  0  0  0  0  0  0  0
    1.8728    1.9116   -1.9959 C   0  0  0  0  0  0  0  0  0  0  0  0
    1.1404    1.0112   -2.6615 C   0  0  0  0  0  0  0  0  0  0  0  0
    1.7597   -0.0915   -3.2236 O   0  0  0  0  0  0  0  0  0  0  0  0
    0.9790   -1.2721   -3.2698 C   0  0  2  0  0  0  0  0  0  0  0  0
    1.7301   -2.3655   -3.8559 O   0  0  0  0  0  0  0  0  0  0  0  0
    2.0420   -2.3334   -5.2142 C   0  0  0  0  0  0  0  0  0  0  0  0
    2.0965   -3.4660   -5.9596 C   0  0  0  0  0  0  0  0  0  0  0  0
    2.3550   -3.4146   -7.3431 O   0  0  0  0  0  0  0  0  0  0  0  0
    2.5492   -2.1913   -7.9938 C   0  0  0  0  0  0  0  0  0  0  0  0
    2.6250   -1.0469   -7.2919 C   0  0  0  0  0  0  0  0  0  0  0  0
    2.3716   -0.9948   -5.8222 C   0  0  0  0  0  0  0  0  0  0  0  0
    2.9189    0.2784   -7.9328 C   0  0  3  0  0  0  0  0  0  0  0  0
    4.1497    0.7398   -7.4211 O   0  0  0  0  0  0  0  0  0  0  0  0
    4.6508    1.8897   -7.9552 C   0  0  0  0  0  0  0  0  0  0  0  0
    5.5191    2.5170   -7.3711 O   0  0  0  0  0  0  0  0  0  0  0  0
    4.1391    2.2847   -9.1510 O   0  0  0  0  0  0  0  0  0  0  0  0
    3.4557    1.4446   -9.9476 C   0  0  0  0  0  0  0  0  0  0  0  0
    3.0902    1.7343  -11.0762 O   0  0  0  0  0  0  0  0  0  0  0  0
    3.0960    0.1487   -9.3802 C   0  0  0  0  0  0  0  0  0  0  0  0
    2.9471   -1.0045  -10.0682 C   0  0  0  0  0  0  0  0  0  0  0  0
    2.6698   -2.1868   -9.3717 O   0  3  0  0  0  0  0  0  0  0  0  0
    3.1217   -1.1472  -11.5300 C   0  0  3  0  0  0  0  0  0  0  0  0
    2.8778   -2.4444  -12.0741 N   0  0  0  0  0  0  0  0  0  0  0  0
    4.0697   -2.1096  -11.9644 N   0  0  0  0  0  0  0  0  0  0  0  0
    1.9265   -4.8534   -5.3847 C   0  0  0  0  0  0  0  0  0  0  0  0
    2.3105   -5.0762   -4.0613 C   0  0  0  0  0  0  0  0  0  0  0  0
    2.1872   -6.2695   -3.4790 N   0  3  0  0  0  0  0  0  0  0  0  0
    2.5188   -6.3968   -2.1795 F   0  0  0  0  0  0  0  0  0  0  0  0
    1.7666   -7.3318   -4.1221 N   0  0  0  0  0  0  0  0  0  0  0  0
    1.4088   -7.2340   -5.4031 C   0  0  0  0  0  0  0  0  0  0  0  0
    1.4560   -5.9940   -6.0906 C   0  0  0  0  0  0  0  0  0  0  0  0
    1.0120   -5.9833   -7.4301 C   0  0  0  0  0  0  0  0  0  0  0  0
    0.5797   -7.1463   -8.0742 C   0  0  0  0  0  0  0  0  0  0  0  0
    0.1666   -7.0832   -9.4754 C   0  0  0  0  0  0  0  0  0  0  0  0
    0.4051   -6.0822  -10.1366 O   0  0  0  0  0  0  0  0  0  0  0  0
   -0.5257   -8.3046  -10.0363 C   0  0  0  0  0  0  0  0  0  0  0  0
   -0.6948   -8.4129  -11.2408 O   0  0  0  0  0  0  0  0  0  0  0  0
   -0.9910   -9.2947   -8.9886 C   0  0  1  0  0  0  0  0  0  0  0  0
   -0.0324   -9.4833   -7.9269 O   0  0  0  0  0  0  0  0  0  0  0  0
    0.5095   -8.3431   -7.3894 C   0  0  0  0  0  0  0  0  0  0  0  0
    0.9669   -8.4042   -6.0601 C   0  0  0  0  0  0  0  0  0  0  0  0
    0.7345   -9.5902   -5.3243 N   0  0  0  0  0  0  0  0  0  0  0  0
   -2.3840   -8.9734   -8.4962 C   0  0  1  0  0  0  0  0  0  0  0  0
   -3.4157   -8.9587   -9.4993 O   0  0  0  0  0  0  0  0  0  0  0  0
   -2.7576   -9.5634   -7.2397 O   0  0  0  0  0  0  0  0  0  0  0  0
   -2.6846   -8.2315   -7.2877 C   0  0  0  0  0  0  0  0  0  0  0  0
   -2.0593   -7.4056   -6.6450 O   0  0  0  0  0  0  0  0  0  0  0  0
   -0.3444   -1.0714   -3.9870 C   0  0  0  0  0  0  0  0  0  0  0  0
   -0.7577   -1.7714   -4.9027 O   0  0  0  0  0  0  0  0  0  0  0  0
   -1.0776    0.1575   -3.5375 C   0  0  0  0  0  0  0  0  0  0  0  0
   -2.2698    0.2461   -3.7771 O   0  0  0  0  0  0  0  0  0  0  0  0
   -0.3216    1.2653   -2.8307 C   0  0  0  0  0  0  0  0  0  0  0  0
   -0.8843    2.2800   -2.4601 O   0  0  0  0  0  0  0  0  0  0  0  0
  1  2  1  0  0  0  0
  2  3  2  0  0  0  0
  3  4  1  0  0  0  0
  3 53  1  0  0  0  0
  4  5  1  0  0  0  0
  5  6  1  6  0  0  0
  5 49  1  0  0  0  0
  6  7  1  0  0  0  0
  7  8  2  0  0  0  0
  7 12  1  0  0  0  0
  8  9  1  0  0  0  0
  8 26  1  0  0  0  0
  9 10  1  0  0  0  0
 10 11  2  0  0  0  0
 10 22  1  0  0  0  0
 11 12  1  0  0  0  0
 11 13  1  0  0  0  0
 13 14  1  0  0  0  0
 13 20  1  0  0  0  0
 14 15  1  0  0  0  0
 15 16  2  0  0  0  0
 15 17  1  0  0  0  0
 17 18  1  0  0  0  0
 18 19  2  0  0  0  0
 18 20  1  0  0  0  0
 20 21  2  0  0  0  0
 21 22  1  0  0  0  0
 21 23  1  0  0  0  0
 23 24  1  0  0  0  0
 23 25  1  0  0  0  0
 24 25  2  0  0  0  0
 26 27  2  0  0  0  0
 26 32  1  0  0  0  0
 27 28  1  0  0  0  0
 28 29  1  0  0  0  0
 28 30  2  0  0  0  0
 30 31  1  0  0  0  0
 31 32  2  0  0  0  0
 31 42  1  0  0  0  0
 32 33  1  0  0  0  0
 33 34  2  0  0  0  0
 34 35  1  0  0  0  0
 34 41  1  0  0  0  0
 35 36  2  0  0  0  0
 35 37  1  0  0  0  0
 37 38  2  0  0  0  0
 39 37  1  6  0  0  0
 39 40  1  0  0  0  0
 39 44  1  0  0  0  0
 40 41  1  0  0  0  0
 41 42  2  0  0  0  0
 42 43  1  0  0  0  0
 44 45  1  6  0  0  0
 44 46  1  0  0  0  0
 44 47  1  0  0  0  0
 46 47  1  0  0  0  0
 47 48  2  0  0  0  0
 49 50  2  0  0  0  0
 49 51  1  0  0  0  0
 51 52  2  0  0  0  0
 51 53  1  0  0  0  0
 53 54  2  0  0  0  0
M  CHG  2  22   1  28   1
M  END
$$$$