
 OpenBabel09262021543D

 53 61  0  0  1  0  0  0  0  0999 V2000
    7.9932   -6.0657    1.0982 O   0  0  0  0  0  0  0  0  0  0  0  0
    7.5261   -5.4416    2.2257 C   0  0  0  0  0  0  0  0  0  0  0  0
    6.3345   -4.8343    2.2766 C   0  0  0  0  0  0  0  0  0  0  0  0
    5.5149   -4.7863    1.1634 O   0  0  0  0  0  0  0  0  0  0  0  0
    4.1211   -4.7801    1.4641 C   0  0  2  0  0  0  0  0  0  0  0  0
    3.3249   -4.8231    0.2756 O   0  0  0  0  0  0  0  0  0  0  0  0
    3.4702   -5.9449   -0.5296 C   0  0  0  0  0  0  0  0  0  0  0  0
    3.2959   -5.8620   -1.8648 C   0  0  0  0  0  0  0  0  0  0  0  0
    3.3361   -6.9633   -2.7140 O   0  0  0  0  0  0  0  0  0  0  0  0
    3.4239   -8.2330   -2.1659 C   0  0  0  0  0  0  0  0  0  0  0  0
    3.5916   -8.4178   -0.8472 C   0  0  0  0  0  0  0  0  0  0  0  0
    3.7120   -7.2876    0.1187 C   0  0  0  0  0  0  0  0  0  0  0  0
    3.6438   -9.8159   -0.3387 C   0  0  0  0  0  0  0  0  0  0  0  0
    3.7975  -10.0532    0.9225 N   0  0  0  0  0  0  0  0  0  0  0  0
    3.8376  -11.3629    1.3602 C   0  0  0  0  0  0  0  0  0  0  0  0
    4.0067  -11.5634    2.5560 O   0  0  0  0  0  0  0  0  0  0  0  0
    3.6936  -12.4521    0.5233 N   0  0  0  0  0  0  0  0  0  0  0  0
    3.5428  -12.2452   -0.7392 C   0  0  0  0  0  0  0  0  0  0  0  0
    3.5052  -10.9075   -1.3286 C   0  0  0  0  0  0  0  0  0  0  0  0
    3.3572  -10.6175   -2.6367 C   0  0  0  0  0  0  0  0  0  0  0  0
    3.3126   -9.2894   -3.0339 N   0  0  0  0  0  0  0  0  0  0  0  0
    3.2217  -11.6188   -3.7179 C   0  0  0  0  0  0  0  0  0  0  0  0
    4.1061  -11.6211   -4.8517 O   0  0  0  0  0  0  0  0  0  0  0  0
    4.1579  -12.6940   -3.8935 O   0  0  0  0  0  0  0  0  0  0  0  0
    2.9830   -4.6010   -2.5567 C   0  0  0  0  0  0  0  0  0  0  0  0
    4.0622   -3.9019   -2.9602 N   0  0  0  0  0  0  0  0  0  0  0  0
    3.8013   -2.7813   -3.6312 C   0  0  0  0  0  0  0  0  0  0  0  0
    2.5842   -2.3221   -3.9554 N   0  0  0  0  0  0  0  0  0  0  0  0
    1.5139   -3.0235   -3.5542 C   0  0  0  0  0  0  0  0  0  0  0  0
    1.6584   -4.2098   -2.8172 C   0  0  0  0  0  0  0  0  0  0  0  0
    0.5125   -4.9281   -2.4022 C   0  0  0  0  0  0  0  0  0  0  0  0
   -0.7610   -4.4821   -2.7426 C   0  0  0  0  0  0  0  0  0  0  0  0
   -1.9442   -5.2425   -2.3228 C   0  0  0  0  0  0  0  0  0  0  0  0
   -1.8633   -6.1868   -1.5532 O   0  0  0  0  0  0  0  0  0  0  0  0
   -3.2645   -4.8652   -2.9559 C   0  0  0  0  0  0  0  0  0  0  0  0
   -4.2823   -5.5049   -2.7257 O   0  0  0  0  0  0  0  0  0  0  0  0
   -3.1729   -3.8135   -4.0340 C   0  0  1  0  0  0  0  0  0  0  0  0
   -2.1457   -2.8364   -3.8317 O   0  0  0  0  0  0  0  0  0  0  0  0
   -0.9142   -3.3251   -3.4913 C   0  0  0  0  0  0  0  0  0  0  0  0
    0.2185   -2.5834   -3.8852 C   0  0  0  0  0  0  0  0  0  0  0  0
    0.0457   -1.3023   -4.6615 C   0  0  0  0  0  0  0  0  0  0  0  0
   -0.1797    0.1769   -3.4166 Br  0  0  0  0  0  0  0  0  0  0  0  0
   -3.0728   -4.4068   -5.4115 C   0  0  1  0  0  0  0  0  0  0  0  0
   -2.8600   -3.4655   -6.4921 O   0  0  0  0  0  0  0  0  0  0  0  0
   -2.3208   -5.6153   -5.4939 O   0  0  0  0  0  0  0  0  0  0  0  0
   -3.6342   -5.7024   -5.8059 C   0  0  0  0  0  0  0  0  0  0  0  0
   -4.1381   -6.0490   -6.8530 O   0  0  0  0  0  0  0  0  0  0  0  0
    3.7833   -3.5231    2.2474 C   0  0  0  0  0  0  0  0  0  0  0  0
    2.8958   -2.7209    1.9987 O   0  0  0  0  0  0  0  0  0  0  0  0
    4.6612   -3.3680    3.4632 C   0  0  0  0  0  0  0  0  0  0  0  0
    4.3288   -2.6275    4.3756 O   0  0  0  0  0  0  0  0  0  0  0  0
    5.9401   -4.1763    3.5543 C   0  0  0  0  0  0  0  0  0  0  0  0
    6.5581   -4.2866    4.6003 O   0  0  0  0  0  0  0  0  0  0  0  0
  1  2  1  0  0  0  0
  2  3  2  0  0  0  0
  3  4  1  0  0  0  0
  3 52  1  0  0  0  0
  4  5  1  0  0  0  0
  5  6  1  6  0  0  0
  5 48  1  0  0  0  0
  6  7  1  0  0  0  0
  7  8  2  0  0  0  0
  7 12  1  0  0  0  0
  8  9  1  0  0  0  0
  8 25  1  0  0  0  0
  9 10  1  0  0  0  0
 10 11  2  0  0  0  0
 10 21  1  0  0  0  0
 11 12  1  0  0  0  0
 11 13  1  0  0  0  0
 13 14  2  0  0  0  0
 13 19  1  0  0  0  0
 14 15  1  0  0  0  0
 15 16  2  0  0  0  0
 15 17  1  0  0  0  0
 17 18  2  0  0  0  0
 18 19  1  0  0  0  0
 19 20  2  0  0  0  0
 20 21  1  0  0  0  0
 20 22  1  0  0  0  0
 22 23  1  0  0  0  0
 22 24  1  0  0  0  0
 23 24  1  0  0  0  0
 25 26  2  0  0  0  0
 25 30  1  0  0  0  0
 26 27  1  0  0  0  0
 27 28  2  0  0  0  0
 28 29  1  0  0  0  0
 29 30  2  0  0  0  0
 29 40  1  0  0  0  0
 30 31  1  0  0  0  0
 31 32  2  0  0  0  0
 32 33  1  0  0  0  0
 32 39  1  0  0  0  0
 33 34  2  0  0  0  0
 33 35  1  0  0  0  0
 35 36  2  0  0  0  0
 37 35  1  1  0  0  0
 37 38  1  0  0  0  0
 37 43  1  0  0  0  0
 38 39  1  0  0  0  0
 39 40  2  0  0  0  0
 40 41  1  0  0  0  0
 41 42  1  0  0  0  0
 43 44  1  6  0  0  0
 43 45  1  0  0  0  0
 43 46  1  0  0  0  0
 45 46  1  0  0  0  0
 46 47  2  0  0  0  0
 48 49  2  0  0  0  0
 48 50  1  0  0  0  0
 50 51  2  0  0  0  0
 50 52  1  0  0  0  0
 52 53  2  0  0  0  0
M  END
$$$$