
 OpenBabel10252009423D

 93108  0  0  1  0  0  0  0  0999 V2000
    2.1849    1.4805   -2.0474 F   0  0  0  0  0  0  0  0  0  0  0  0
    2.8231    1.6453   -0.8474 C   0  0  3  0  0  0  0  0  0  0  0  0
    3.2852    0.2544   -0.3607 C   0  0  0  0  0  0  0  0  0  0  0  0
    4.8071    0.0351   -0.5450 C   0  0  3  0  0  0  0  0  0  0  0  0
    5.2132   -1.3994   -0.1933 C   0  0  0  0  0  0  0  0  0  0  0  0
    5.8742   -1.5141    1.1677 C   0  0  0  0  0  0  0  0  0  0  0  0
    7.0058   -0.5023    1.3420 C   0  0  3  0  0  0  0  0  0  0  0  0
    6.5397    0.9340    1.1824 C   0  0  0  0  0  0  0  0  0  0  0  0
    5.5229    1.1570    0.2147 C   0  0  0  0  0  0  0  0  0  0  0  0
    5.0411    2.4575   -0.0377 C   0  0  0  0  0  0  0  0  0  0  0  0
    3.9951    2.6038   -1.1137 C   0  0  3  0  0  0  0  0  0  0  0  0
    3.5820    4.0548   -1.5133 C   0  0  3  0  0  0  0  0  0  0  0  0
    4.5392    5.1270   -0.9493 C   0  0  0  0  0  0  0  0  0  0  0  0
    4.8861    4.8899    0.5194 C   0  0  0  0  0  0  0  0  0  0  0  0
    5.5180    3.5360    0.6914 C   0  0  0  0  0  0  0  0  0  0  0  0
    6.5121    3.3150    1.6568 C   0  0  0  0  0  0  0  0  0  0  0  0
    7.0567    2.0341    1.9442 C   0  0  0  0  0  0  0  0  0  0  0  0
    8.0574    1.9239    3.0712 C   0  0  0  0  0  0  0  0  0  0  0  0
    9.1120    0.9963    3.0650 C   0  0  0  0  0  0  0  0  0  0  0  0
    9.9126    0.7199    4.1981 C   0  0  0  0  0  0  0  0  0  0  0  0
   10.7046   -0.5845    4.2263 C   0  0  3  0  0  0  0  0  0  0  0  0
    9.6937   -1.7445    4.3813 C   0  0  0  0  0  0  0  0  0  0  0  0
   10.3625   -3.1056    4.4674 C   0  0  0  0  0  0  0  0  0  0  0  0
   11.3731   -3.1644    5.6152 C   0  0  3  0  0  0  0  0  0  0  0  0
   12.4313   -2.0483    5.4391 C   0  0  3  0  0  0  0  0  0  0  0  0
   11.7961   -0.6283    5.3221 C   0  0  3  0  0  0  0  0  0  0  0  0
   11.2361   -0.0775    6.6506 C   0  0  0  0  0  0  0  0  0  0  0  0
   10.7440    1.3748    6.5085 C   0  0  3  0  0  0  0  0  0  0  0  0
    9.8232    1.5496    5.3181 C   0  0  0  0  0  0  0  0  0  0  0  0
    8.8663    2.5668    5.3123 C   0  0  0  0  0  0  0  0  0  0  0  0
    7.9809    2.7127    4.2365 C   0  0  0  0  0  0  0  0  0  0  0  0
    7.0322    3.6542    4.3649 F   0  0  0  0  0  0  0  0  0  0  0  0
   11.9174    2.3623    6.4107 C   0  0  0  0  0  0  0  0  0  0  0  0
   13.5107   -2.1003    6.5258 C   0  0  0  0  0  0  0  0  0  0  0  0
   11.9834   -4.5690    5.6674 C   0  0  0  0  0  0  0  0  0  0  0  0
    3.4280    4.2097   -3.0738 C   0  0  3  0  0  0  0  0  0  0  0  0
    2.8658    5.5146   -3.3637 O   0  0  0  0  0  0  0  0  0  0  0  0
    3.3777    6.2732   -4.3658 C   0  0  0  0  0  0  0  0  0  0  0  0
    4.6623    6.1490   -4.8272 C   0  0  0  0  0  0  0  0  0  0  0  0
    5.4615    4.9876   -4.4432 C   0  0  0  0  0  0  0  0  0  0  0  0
    6.6392    4.9619   -4.8119 O   0  0  0  0  0  0  0  0  0  0  0  0
    4.7083    3.8088   -3.8714 C   0  0  3  0  0  0  0  0  0  0  0  0
    4.3156    3.0004   -5.0076 O   0  0  0  0  0  0  0  0  0  0  0  0
    5.0650    1.8979   -5.3401 C   0  0  0  0  0  0  0  0  0  0  0  0
    4.4302    0.9573   -6.1695 C   0  0  0  0  0  0  0  0  0  0  0  0
    5.1169   -0.1758   -6.6172 C   0  0  0  0  0  0  0  0  0  0  0  0
    6.4331   -0.4012   -6.2209 C   0  0  0  0  0  0  0  0  0  0  0  0
    7.0553    0.5057   -5.3670 C   0  0  0  0  0  0  0  0  0  0  0  0
    6.3714    1.6503   -4.9365 C   0  0  0  0  0  0  0  0  0  0  0  0
    5.1742    7.0350   -5.7869 C   0  0  0  0  0  0  0  0  0  0  0  0
    4.3523    7.9541   -6.4761 C   0  0  0  0  0  0  0  0  0  0  0  0
    2.9961    8.0103   -6.1128 C   0  0  0  0  0  0  0  0  0  0  0  0
    2.5709    7.2455   -4.9720 C   0  0  0  0  0  0  0  0  0  0  0  0
    1.3236    7.3952   -4.5093 F   0  0  0  0  0  0  0  0  0  0  0  0
    2.1653    8.7839   -6.9576 C   0  0  0  0  0  0  0  0  0  0  0  0
    0.4844    9.0185   -6.6449 Cl  0  0  0  0  0  0  0  0  0  0  0  0
    2.6408    9.3403   -8.1778 C   0  0  0  0  0  0  0  0  0  0  0  0
    3.9957    9.3489   -8.5454 C   0  0  0  0  0  0  0  0  0  0  0  0
    4.8356    8.7495   -7.5694 C   0  0  0  0  0  0  0  0  0  0  0  0
    6.5494    9.0681   -7.5941 Cl  0  0  0  0  0  0  0  0  0  0  0  0
    4.4738    9.9056   -9.8993 C   0  0  0  0  0  0  0  0  0  0  0  0
    5.5705    9.2936  -10.5852 C   0  0  0  0  0  0  0  0  0  0  0  0
    6.2414    9.8426  -11.7674 C   0  0  0  0  0  0  0  0  0  0  0  0
    7.5836    9.5404  -12.4774 C   0  0  0  0  0  0  0  0  0  0  0  0
    7.9903   10.3157  -13.5707 C   0  0  0  0  0  0  0  0  0  0  0  0
    9.3457   10.3640  -13.9893 N   0  0  0  0  0  0  0  0  0  0  0  0
    7.0614   11.2171  -14.0539 C   0  0  0  0  0  0  0  0  0  0  0  0
    5.8599   11.4299  -13.5064 N   0  0  0  0  0  0  0  0  0  0  0  0
    5.4669   10.8540  -12.3678 N   0  3  0  0  0  0  0  0  0  0  0  0
    4.2852   11.3265  -11.8243 N   0  3  0  0  0  0  0  0  0  0  0  0
    3.8788   11.0117  -10.5610 C   0  0  0  0  0  0  0  0  0  0  0  0
    2.8196   11.8889   -9.9324 C   0  0  0  0  0  0  0  0  0  0  0  0
    3.3005   12.3562  -12.8104 Cl  0  0  0  0  0  0  0  0  0  0  0  0
    8.6854    8.4725  -12.0408 N   0  3  0  0  0  0  0  0  0  0  0  0
    9.5212    7.7787  -12.9525 N   0  3  0  0  0  0  0  0  0  0  0  0
    9.0593    7.5298  -14.6022 Cl  0  0  0  0  0  0  0  0  0  0  0  0
   10.6329    7.0519  -12.5349 C   0  0  0  0  0  0  0  0  0  0  0  0
   10.9037    6.7378  -11.1722 C   0  0  0  0  0  0  0  0  0  0  0  0
    9.9979    7.2845  -10.2737 C   0  0  0  0  0  0  0  0  0  0  0  0
    8.9918    8.2636  -10.7140 C   0  0  0  0  0  0  0  0  0  0  0  0
    8.4213    9.1251   -9.7805 N   0  0  0  0  0  0  0  0  0  0  0  0
   10.0959    6.8850   -9.0017 N   0  0  0  0  0  0  0  0  0  0  0  0
   10.9544    5.9494   -8.5259 N   0  3  0  0  0  0  0  0  0  0  0  0
   11.9812    5.4573   -9.3030 C   0  0  0  0  0  0  0  0  0  0  0  0
   11.9674    5.9308  -10.6425 N   0  3  0  0  0  0  0  0  0  0  0  0
   13.0522    5.6447  -11.4368 N   0  0  0  0  0  0  0  0  0  0  0  0
   14.1113    4.9299  -10.9715 N   0  3  0  0  0  0  0  0  0  0  0  0
   15.3555    4.7724  -11.8093 C   0  0  0  0  0  0  0  0  0  0  0  0
   14.0568    4.3651   -9.7564 C   0  0  0  0  0  0  0  0  0  0  0  0
   13.0044    4.6033   -8.9416 N   0  3  0  0  0  0  0  0  0  0  0  0
   13.0608    3.7348   -7.4621 Cl  0  0  0  0  0  0  0  0  0  0  0  0
   10.6573    5.5317   -6.8919 Cl  0  0  0  0  0  0  0  0  0  0  0  0
    8.2955   -0.8026    0.1018 Cl  0  0  0  0  0  0  0  0  0  0  0  0
  1  2  1  0  0  0  0
  2  3  1  0  0  0  0
  2 11  1  0  0  0  0
  3  4  1  0  0  0  0
  4  5  1  0  0  0  0
  4  9  1  0  0  0  0
  5  6  1  0  0  0  0
  6  7  1  0  0  0  0
  7  8  1  0  0  0  0
  7 93  1  0  0  0  0
  8  9  2  0  0  0  0
  8 17  1  0  0  0  0
  9 10  1  0  0  0  0
 10 11  1  0  0  0  0
 10 15  2  0  0  0  0
 11 12  1  0  0  0  0
 12 13  1  0  0  0  0
 12 36  1  0  0  0  0
 13 14  1  0  0  0  0
 14 15  1  0  0  0  0
 15 16  1  0  0  0  0
 16 17  2  0  0  0  0
 17 18  1  0  0  0  0
 18 19  2  0  0  0  0
 18 31  1  0  0  0  0
 19 20  1  0  0  0  0
 20 21  1  0  0  0  0
 20 29  2  0  0  0  0
 21 22  1  0  0  0  0
 21 26  1  0  0  0  0
 22 23  1  0  0  0  0
 23 24  1  0  0  0  0
 24 25  1  0  0  0  0
 24 35  1  0  0  0  0
 25 26  1  0  0  0  0
 25 34  1  0  0  0  0
 26 27  1  0  0  0  0
 27 28  1  0  0  0  0
 28 29  1  0  0  0  0
 28 33  1  0  0  0  0
 29 30  1  0  0  0  0
 30 31  2  0  0  0  0
 31 32  1  0  0  0  0
 36 37  1  0  0  0  0
 36 42  1  0  0  0  0
 37 38  1  0  0  0  0
 38 39  2  0  0  0  0
 38 53  1  0  0  0  0
 39 40  1  0  0  0  0
 39 50  1  0  0  0  0
 40 41  2  0  0  0  0
 40 42  1  0  0  0  0
 42 43  1  0  0  0  0
 43 44  1  0  0  0  0
 44 45  2  0  0  0  0
 44 49  1  0  0  0  0
 45 46  1  0  0  0  0
 46 47  2  0  0  0  0
 47 48  1  0  0  0  0
 48 49  2  0  0  0  0
 50 51  2  0  0  0  0
 51 52  1  0  0  0  0
 51 59  1  0  0  0  0
 52 53  2  0  0  0  0
 52 55  1  0  0  0  0
 53 54  1  0  0  0  0
 55 56  1  0  0  0  0
 55 57  2  0  0  0  0
 57 58  1  0  0  0  0
 58 59  2  0  0  0  0
 58 61  1  0  0  0  0
 59 60  1  0  0  0  0
 61 62  2  0  0  0  0
 61 71  1  0  0  0  0
 62 63  1  0  0  0  0
 63 64  2  0  0  0  0
 63 69  1  0  0  0  0
 64 65  1  0  0  0  0
 64 74  1  0  0  0  0
 65 66  1  0  0  0  0
 65 67  2  0  0  0  0
 67 68  1  0  0  0  0
 68 69  2  0  0  0  0
 69 70  1  0  0  0  0
 70 71  2  0  0  0  0
 70 73  1  0  0  0  0
 71 72  1  0  0  0  0
 74 75  2  0  0  0  0
 74 80  1  0  0  0  0
 75 76  1  0  0  0  0
 75 77  1  0  0  0  0
 77 78  2  0  0  0  0
 78 79  1  0  0  0  0
 78 85  1  0  0  0  0
 79 80  2  0  0  0  0
 79 82  1  0  0  0  0
 80 81  1  0  0  0  0
 82 83  2  0  0  0  0
 83 84  1  0  0  0  0
 83 92  1  0  0  0  0
 84 85  2  0  0  0  0
 84 90  1  0  0  0  0
 85 86  1  0  0  0  0
 86 87  2  0  0  0  0
 87 88  1  0  0  0  0
 87 89  1  0  0  0  0
 89 90  2  0  0  0  0
 90 91  1  0  0  0  0
M  CHG  8  69   1  70   1  74   1  75   1  83   1  85   1  87   1  90   1
M  END
$$$$