
 OpenBabel11222015523D

 54 63  0  0  1  0  0  0  0  0999 V2000
    4.1544   -0.2988   -1.7403 O   0  0  0  0  0  0  0  0  0  0  0  0
    3.5439   -0.8369   -2.8420 C   0  0  0  0  0  0  0  0  0  0  0  0
    3.1075   -2.0987   -2.8604 C   0  0  0  0  0  0  0  0  0  0  0  0
    3.3191   -2.9533   -1.7874 O   0  0  0  0  0  0  0  0  0  0  0  0
    2.1194   -3.5304   -1.2758 C   0  0  2  0  0  0  0  0  0  0  0  0
    2.4096   -4.5925   -0.3103 O   0  0  0  0  0  0  0  0  0  0  0  0
    2.9431   -5.7888   -0.7883 C   0  0  0  0  0  0  0  0  0  0  0  0
    2.6776   -6.9831   -0.2020 C   0  0  0  0  0  0  0  0  0  0  0  0
    3.1475   -8.1957   -0.7346 O   0  0  0  0  0  0  0  0  0  0  0  0
    3.7454   -8.2025   -2.0075 C   0  0  0  0  0  0  0  0  0  0  0  0
    4.1197   -7.0565   -2.6022 C   0  0  0  0  0  0  0  0  0  0  0  0
    3.8913   -5.7301   -1.9635 C   0  0  0  0  0  0  0  0  0  0  0  0
    4.7146   -7.0120   -3.9861 C   0  0  3  0  0  0  0  0  0  0  0  0
    6.0461   -6.5439   -3.8787 O   0  0  0  0  0  0  0  0  0  0  0  0
    6.7531   -6.4636   -5.0389 C   0  0  0  0  0  0  0  0  0  0  0  0
    7.8025   -5.8303   -5.1046 O   0  0  0  0  0  0  0  0  0  0  0  0
    6.2171   -7.1012   -6.1049 O   0  0  0  0  0  0  0  0  0  0  0  0
    5.3892   -8.2506   -5.9508 C   0  0  3  0  0  0  0  0  0  0  0  0
    4.8022   -8.3554   -4.5878 C   0  0  0  0  0  0  0  0  0  0  0  0
    4.4132   -9.4771   -3.9423 C   0  0  0  0  0  0  0  0  0  0  0  0
    3.9307   -9.4127   -2.6399 O   0  3  0  0  0  0  0  0  0  0  0  0
    4.4793  -10.8241   -4.5483 C   0  0  0  0  0  0  0  0  0  0  0  0
    5.6474  -11.6397   -4.4082 O   0  0  0  0  0  0  0  0  0  0  0  0
    4.4337  -11.9963   -3.7175 O   0  0  0  0  0  0  0  0  0  0  0  0
    4.2763   -8.1279   -6.8141 O   0  0  0  0  0  0  0  0  0  0  0  0
    1.9146   -7.1136    1.0741 C   0  0  0  0  0  0  0  0  0  0  0  0
    2.6099   -6.9916    2.2784 C   0  0  0  0  0  0  0  0  0  0  0  0
    1.9649   -6.9920    3.4530 N   0  3  0  0  0  0  0  0  0  0  0  0
    2.6740   -6.9334    4.5973 F   0  0  0  0  0  0  0  0  0  0  0  0
    0.6527   -7.0315    3.5416 N   0  0  0  0  0  0  0  0  0  0  0  0
   -0.0799   -7.1721    2.4370 C   0  0  0  0  0  0  0  0  0  0  0  0
    0.5174   -7.2991    1.1569 C   0  0  0  0  0  0  0  0  0  0  0  0
   -0.3092   -7.6201    0.0580 C   0  0  0  0  0  0  0  0  0  0  0  0
   -1.6815   -7.7170    0.2480 C   0  0  0  0  0  0  0  0  0  0  0  0
   -2.6037   -8.1437   -0.7972 C   0  0  0  0  0  0  0  0  0  0  0  0
   -2.7002   -8.6219   -1.9655 O   0  0  0  0  0  0  0  0  0  0  0  0
   -4.1690   -8.4186   -1.8302 O   0  0  0  0  0  0  0  0  0  0  0  0
   -3.9211   -7.9568   -0.6714 C   0  0  0  0  0  0  0  0  0  0  0  0
   -4.5198   -7.1810    0.4875 C   0  0  1  0  0  0  0  0  0  0  0  0
   -3.6667   -7.3913    1.6684 O   0  0  0  0  0  0  0  0  0  0  0  0
   -2.2962   -7.4140    1.4714 C   0  0  0  0  0  0  0  0  0  0  0  0
   -1.4697   -7.1940    2.5618 C   0  0  0  0  0  0  0  0  0  0  0  0
   -2.0127   -7.0077    3.7763 F   0  0  0  0  0  0  0  0  0  0  0  0
   -4.6199   -5.6730    0.2301 C   0  0  1  0  0  0  0  0  0  0  0  0
   -5.1963   -4.8810    1.2852 O   0  0  0  0  0  0  0  0  0  0  0  0
   -3.4647   -5.0885   -0.3948 O   0  0  0  0  0  0  0  0  0  0  0  0
   -4.6708   -5.0548   -1.1612 C   0  0  3  0  0  0  0  0  0  0  0  0
   -5.1793   -3.6951   -1.3496 N   0  0  0  0  0  0  0  0  0  0  0  0
    1.1095   -4.0296   -2.3198 C   0  0  0  0  0  0  0  0  0  0  0  0
    0.0890   -4.6553   -2.0736 O   0  0  0  0  0  0  0  0  0  0  0  0
    1.5868   -3.8396   -3.7368 C   0  0  0  0  0  0  0  0  0  0  0  0
    1.5309   -4.7811   -4.5145 O   0  0  0  0  0  0  0  0  0  0  0  0
    2.3749   -2.5924   -4.0567 C   0  0  0  0  0  0  0  0  0  0  0  0
    2.3810   -2.0888   -5.1618 O   0  0  0  0  0  0  0  0  0  0  0  0
  1  2  1  0  0  0  0
  2  3  2  0  0  0  0
  3  4  1  0  0  0  0
  3 53  1  0  0  0  0
  4  5  1  0  0  0  0
  5  6  1  1  0  0  0
  5 49  1  0  0  0  0
  6  7  1  0  0  0  0
  7  8  2  0  0  0  0
  7 12  1  0  0  0  0
  8  9  1  0  0  0  0
  8 26  1  0  0  0  0
  9 10  1  0  0  0  0
 10 11  2  0  0  0  0
 10 21  1  0  0  0  0
 11 12  1  0  0  0  0
 11 13  1  0  0  0  0
 13 14  1  0  0  0  0
 13 19  1  0  0  0  0
 14 15  1  0  0  0  0
 15 16  2  0  0  0  0
 15 17  1  0  0  0  0
 17 18  1  0  0  0  0
 18 19  1  0  0  0  0
 18 25  1  0  0  0  0
 19 20  2  0  0  0  0
 20 21  1  0  0  0  0
 20 22  1  0  0  0  0
 22 23  1  0  0  0  0
 22 24  1  0  0  0  0
 23 24  1  0  0  0  0
 26 27  2  0  0  0  0
 26 32  1  0  0  0  0
 27 28  1  0  0  0  0
 28 29  1  0  0  0  0
 28 30  2  0  0  0  0
 30 31  1  0  0  0  0
 31 32  2  0  0  0  0
 31 42  1  0  0  0  0
 32 33  1  0  0  0  0
 33 34  2  0  0  0  0
 34 35  1  0  0  0  0
 34 41  1  0  0  0  0
 35 36  1  0  0  0  0
 35 38  2  0  0  0  0
 36 37  1  0  0  0  0
 37 38  1  0  0  0  0
 39 38  1  6  0  0  0
 39 40  1  0  0  0  0
 39 44  1  0  0  0  0
 40 41  1  0  0  0  0
 41 42  2  0  0  0  0
 42 43  1  0  0  0  0
 44 45  1  1  0  0  0
 44 46  1  0  0  0  0
 44 47  1  0  0  0  0
 46 47  1  0  0  0  0
 47 48  1  0  0  0  0
 49 50  2  0  0  0  0
 49 51  1  0  0  0  0
 51 52  2  0  0  0  0
 51 53  1  0  0  0  0
 53 54  2  0  0  0  0
M  CHG  2  21   1  28   1
M  END
$$$$