
 OpenBabel09252006443D

 57 67  0  0  1  0  0  0  0  0999 V2000
    4.9979   -5.5519    2.1997 O   0  0  0  0  0  0  0  0  0  0  0  0
    3.8824   -5.3230    2.9635 C   0  0  0  0  0  0  0  0  0  0  0  0
    2.7105   -4.9430    2.4403 C   0  0  0  0  0  0  0  0  0  0  0  0
    2.5770   -4.7357    1.0781 O   0  0  0  0  0  0  0  0  0  0  0  0
    1.2793   -5.0318    0.5638 C   0  0  2  0  0  0  0  0  0  0  0  0
    1.2359   -4.9106   -0.8631 O   0  0  0  0  0  0  0  0  0  0  0  0
    2.0664   -5.7696   -1.5745 C   0  0  0  0  0  0  0  0  0  0  0  0
    2.5862   -5.4072   -2.7667 C   0  0  0  0  0  0  0  0  0  0  0  0
    3.3819   -6.2478   -3.5418 O   0  0  0  0  0  0  0  0  0  0  0  0
    3.5685   -7.5624   -3.1428 C   0  0  0  0  0  0  0  0  0  0  0  0
    3.0655   -8.0230   -1.9874 C   0  0  0  0  0  0  0  0  0  0  0  0
    2.3059   -7.1626   -1.0379 C   0  0  0  0  0  0  0  0  0  0  0  0
    3.2796   -9.4575   -1.6508 C   0  0  0  0  0  0  0  0  0  0  0  0
    2.8045   -9.9571   -0.5571 N   0  0  0  0  0  0  0  0  0  0  0  0
    3.0177  -11.2935   -0.2802 C   0  0  0  0  0  0  0  0  0  0  0  0
    2.5739  -11.7401    0.7703 O   0  0  0  0  0  0  0  0  0  0  0  0
    3.7003  -12.1487   -1.1231 N   0  0  0  0  0  0  0  0  0  0  0  0
    4.1893  -11.6762   -2.2175 C   0  0  0  0  0  0  0  0  0  0  0  0
    4.0460  -10.2764   -2.6157 C   0  0  0  0  0  0  0  0  0  0  0  0
    4.5335   -9.7139   -3.7394 C   0  0  0  0  0  0  0  0  0  0  0  0
    4.2801   -8.3732   -3.9909 N   0  0  0  0  0  0  0  0  0  0  0  0
    5.3282  -10.4245   -4.7658 C   0  0  0  0  0  0  0  0  0  0  0  0
    6.6220   -9.9483   -5.1743 O   0  0  0  0  0  0  0  0  0  0  0  0
    6.5056  -11.1803   -4.4393 O   0  0  0  0  0  0  0  0  0  0  0  0
    2.3393   -4.0953   -3.3950 C   0  0  0  0  0  0  0  0  0  0  0  0
    3.2227   -3.1441   -3.0402 N   0  0  0  0  0  0  0  0  0  0  0  0
    3.0618   -1.9692   -3.6395 C   0  0  0  0  0  0  0  0  0  0  0  0
    2.1224   -1.6698   -4.5456 N   0  0  0  0  0  0  0  0  0  0  0  0
    1.2281   -2.6113   -4.9127 C   0  0  0  0  0  0  0  0  0  0  0  0
    1.3107   -3.8954   -4.3368 C   0  0  0  0  0  0  0  0  0  0  0  0
    0.4140   -4.9083   -4.7314 C   0  0  0  0  0  0  0  0  0  0  0  0
   -0.5389   -4.6631   -5.7113 C   0  0  0  0  0  0  0  0  0  0  0  0
   -1.4150   -5.7560   -6.1612 C   0  0  0  0  0  0  0  0  0  0  0  0
   -1.4895   -6.8112   -5.5500 O   0  0  0  0  0  0  0  0  0  0  0  0
   -2.1914   -5.5333   -7.4399 C   0  0  0  0  0  0  0  0  0  0  0  0
   -2.9474   -6.3892   -7.8799 O   0  0  0  0  0  0  0  0  0  0  0  0
   -1.8883   -4.2324   -8.1334 C   0  0  1  0  0  0  0  0  0  0  0  0
   -1.6198   -3.1598   -7.2279 O   0  0  0  0  0  0  0  0  0  0  0  0
   -0.6440   -3.4032   -6.2936 C   0  0  0  0  0  0  0  0  0  0  0  0
    0.2147   -2.3436   -5.8970 C   0  0  0  0  0  0  0  0  0  0  0  0
    0.1307   -1.0657   -6.5367 N   0  0  0  0  0  0  0  0  0  0  0  0
    0.4454    0.1392   -5.7426 C   0  0  0  0  0  0  0  0  0  0  0  0
   -0.4945    1.1244   -6.4504 C   0  0  3  0  0  0  0  0  0  0  0  0
   -0.2504    0.8361   -7.9576 C   0  0  0  0  0  0  0  0  0  0  0  0
   -0.8146   -0.5659   -7.5181 C   0  0  3  0  0  0  0  0  0  0  0  0
   -1.8177    0.3133   -6.6827 C   0  0  0  0  0  0  0  0  0  0  0  0
   -0.7874   -4.3728   -9.1385 C   0  0  1  0  0  0  0  0  0  0  0  0
    0.4421   -4.9903   -8.6833 O   0  0  0  0  0  0  0  0  0  0  0  0
   -1.2126   -4.7110  -10.4574 O   0  0  0  0  0  0  0  0  0  0  0  0
   -0.6522   -3.4968  -10.3000 C   0  0  0  0  0  0  0  0  0  0  0  0
    0.3444   -3.0313  -10.8126 O   0  0  0  0  0  0  0  0  0  0  0  0
    0.2771   -4.0839    1.1987 C   0  0  0  0  0  0  0  0  0  0  0  0
   -0.5211   -3.3608    0.6227 O   0  0  0  0  0  0  0  0  0  0  0  0
    0.3291   -4.1543    2.7048 C   0  0  0  0  0  0  0  0  0  0  0  0
   -0.6353   -3.8071    3.3710 O   0  0  0  0  0  0  0  0  0  0  0  0
    1.5711   -4.7102    3.3719 C   0  0  0  0  0  0  0  0  0  0  0  0
    1.6009   -4.9627    4.5662 O   0  0  0  0  0  0  0  0  0  0  0  0
  1  2  1  0  0  0  0
  2  3  2  0  0  0  0
  3  4  1  0  0  0  0
  3 56  1  0  0  0  0
  4  5  1  0  0  0  0
  5  6  1  6  0  0  0
  5 52  1  0  0  0  0
  6  7  1  0  0  0  0
  7  8  2  0  0  0  0
  7 12  1  0  0  0  0
  8  9  1  0  0  0  0
  8 25  1  0  0  0  0
  9 10  1  0  0  0  0
 10 11  2  0  0  0  0
 10 21  1  0  0  0  0
 11 12  1  0  0  0  0
 11 13  1  0  0  0  0
 13 14  2  0  0  0  0
 13 19  1  0  0  0  0
 14 15  1  0  0  0  0
 15 16  2  0  0  0  0
 15 17  1  0  0  0  0
 17 18  2  0  0  0  0
 18 19  1  0  0  0  0
 19 20  2  0  0  0  0
 20 21  1  0  0  0  0
 20 22  1  0  0  0  0
 22 23  1  0  0  0  0
 22 24  1  0  0  0  0
 23 24  1  0  0  0  0
 25 26  2  0  0  0  0
 25 30  1  0  0  0  0
 26 27  1  0  0  0  0
 27 28  2  0  0  0  0
 28 29  1  0  0  0  0
 29 30  2  0  0  0  0
 29 40  1  0  0  0  0
 30 31  1  0  0  0  0
 31 32  2  0  0  0  0
 32 33  1  0  0  0  0
 32 39  1  0  0  0  0
 33 34  2  0  0  0  0
 33 35  1  0  0  0  0
 35 36  2  0  0  0  0
 37 35  1  1  0  0  0
 37 38  1  0  0  0  0
 37 47  1  0  0  0  0
 38 39  1  0  0  0  0
 39 40  2  0  0  0  0
 40 41  1  0  0  0  0
 41 42  1  0  0  0  0
 41 45  1  0  0  0  0
 42 43  1  0  0  0  0
 43 44  1  0  0  0  0
 43 46  1  0  0  0  0
 44 45  1  0  0  0  0
 45 46  1  0  0  0  0
 47 48  1  1  0  0  0
 47 49  1  0  0  0  0
 47 50  1  0  0  0  0
 49 50  1  0  0  0  0
 50 51  2  0  0  0  0
 52 53  2  0  0  0  0
 52 54  1  0  0  0  0
 54 55  2  0  0  0  0
 54 56  1  0  0  0  0
 56 57  2  0  0  0  0
M  END
$$$$