
 OpenBabel11222002303D

 54 63  0  0  1  0  0  0  0  0999 V2000
    1.2385    4.0189    5.0491 O   0  0  0  0  0  0  0  0  0  0  0  0
    2.4829    3.6953    4.5712 C   0  0  0  0  0  0  0  0  0  0  0  0
    2.8516    2.4287    4.3424 C   0  0  0  0  0  0  0  0  0  0  0  0
    1.9851    1.3980    4.6391 O   0  0  0  0  0  0  0  0  0  0  0  0
    2.1611    0.1523    3.9960 C   0  0  2  0  0  0  0  0  0  0  0  0
    1.4384   -0.9191    4.6929 O   0  0  0  0  0  0  0  0  0  0  0  0
    1.7714   -1.1964    6.0192 C   0  0  0  0  0  0  0  0  0  0  0  0
    1.5497   -2.4107    6.5715 C   0  0  0  0  0  0  0  0  0  0  0  0
    1.9112   -2.7048    7.9045 O   0  0  0  0  0  0  0  0  0  0  0  0
    2.4482   -1.7034    8.7329 C   0  0  0  0  0  0  0  0  0  0  0  0
    2.6374   -0.4572    8.2714 C   0  0  0  0  0  0  0  0  0  0  0  0
    2.3478   -0.0835    6.8592 C   0  0  0  0  0  0  0  0  0  0  0  0
    3.1915    0.6521    9.1241 C   0  0  3  0  0  0  0  0  0  0  0  0
    2.2030    1.6656    9.2441 O   0  0  0  0  0  0  0  0  0  0  0  0
    2.5797    2.7872    9.9349 C   0  0  0  0  0  0  0  0  0  0  0  0
    1.9846    3.8323    9.8583 O   0  0  0  0  0  0  0  0  0  0  0  0
    3.7119    2.6179   10.6692 O   0  0  0  0  0  0  0  0  0  0  0  0
    3.9221    1.3534   11.3253 C   0  0  3  0  0  0  0  0  0  0  0  0
    3.4728    0.2108   10.5022 C   0  0  0  0  0  0  0  0  0  0  0  0
    3.2909   -1.0703   10.9124 C   0  0  0  0  0  0  0  0  0  0  0  0
    2.7849   -2.0256   10.0325 O   0  3  0  0  0  0  0  0  0  0  0  0
    3.6154   -1.5607   12.2756 C   0  0  0  0  0  0  0  0  0  0  0  0
    2.8648   -2.6435   12.8509 O   0  0  0  0  0  0  0  0  0  0  0  0
    4.2317   -2.8482   12.4490 O   0  0  0  0  0  0  0  0  0  0  0  0
    5.3290    1.1749   11.4678 O   0  0  0  0  0  0  0  0  0  0  0  0
    0.9477   -3.5709    5.8524 C   0  0  0  0  0  0  0  0  0  0  0  0
    1.7870   -4.4459    5.1664 C   0  0  0  0  0  0  0  0  0  0  0  0
    1.3144   -5.5948    4.6636 N   0  3  0  0  0  0  0  0  0  0  0  0
    2.1412   -6.4018    3.9706 F   0  0  0  0  0  0  0  0  0  0  0  0
    0.0739   -5.9992    4.8587 N   0  0  0  0  0  0  0  0  0  0  0  0
   -0.8016   -5.1800    5.4463 C   0  0  0  0  0  0  0  0  0  0  0  0
   -0.4303   -3.8967    5.8920 C   0  0  0  0  0  0  0  0  0  0  0  0
   -1.4617   -3.0206    6.3160 C   0  0  0  0  0  0  0  0  0  0  0  0
   -2.8161   -3.4122    6.3634 C   0  0  0  0  0  0  0  0  0  0  0  0
   -4.0167   -2.4591    6.6254 C   0  0  3  0  0  0  0  0  0  0  0  0
   -3.9386   -1.7888    7.9047 N   0  0  0  0  0  0  0  0  0  0  0  0
   -5.0478   -2.2338    8.3164 N   0  0  0  0  0  0  0  0  0  0  0  0
   -5.2658   -3.0941    7.1576 C   0  0  3  0  0  0  0  0  0  0  0  0
   -5.1343   -4.6054    7.4002 C   0  0  1  0  0  0  0  0  0  0  0  0
   -4.3594   -5.2620    6.3444 O   0  0  0  0  0  0  0  0  0  0  0  0
   -3.0974   -4.7595    6.1308 C   0  0  0  0  0  0  0  0  0  0  0  0
   -2.1140   -5.6076    5.6333 C   0  0  0  0  0  0  0  0  0  0  0  0
   -2.4362   -6.8744    5.3233 F   0  0  0  0  0  0  0  0  0  0  0  0
   -4.6282   -4.9933    8.7739 C   0  0  1  0  0  0  0  0  0  0  0  0
   -3.2713   -4.6251    9.1154 O   0  0  0  0  0  0  0  0  0  0  0  0
   -5.6140   -4.8244    9.8008 O   0  0  0  0  0  0  0  0  0  0  0  0
   -5.1785   -6.1628    9.5797 C   0  0  3  0  0  0  0  0  0  0  0  0
   -4.3271   -6.6464   10.6377 O   0  0  0  0  0  0  0  0  0  0  0  0
    3.5796   -0.3440    3.7480 C   0  0  0  0  0  0  0  0  0  0  0  0
    3.8785   -1.5287    3.6290 O   0  0  0  0  0  0  0  0  0  0  0  0
    4.6282    0.7366    3.7676 C   0  0  0  0  0  0  0  0  0  0  0  0
    5.8045    0.4100    3.8225 O   0  0  0  0  0  0  0  0  0  0  0  0
    4.2367    2.1914    3.8590 C   0  0  0  0  0  0  0  0  0  0  0  0
    5.0321    3.0769    3.5971 O   0  0  0  0  0  0  0  0  0  0  0  0
  1  2  1  0  0  0  0
  2  3  2  0  0  0  0
  3  4  1  0  0  0  0
  3 53  1  0  0  0  0
  4  5  1  0  0  0  0
  5  6  1  1  0  0  0
  5 49  1  0  0  0  0
  6  7  1  0  0  0  0
  7  8  2  0  0  0  0
  7 12  1  0  0  0  0
  8  9  1  0  0  0  0
  8 26  1  0  0  0  0
  9 10  1  0  0  0  0
 10 11  2  0  0  0  0
 10 21  1  0  0  0  0
 11 12  1  0  0  0  0
 11 13  1  0  0  0  0
 13 14  1  0  0  0  0
 13 19  1  0  0  0  0
 14 15  1  0  0  0  0
 15 16  2  0  0  0  0
 15 17  1  0  0  0  0
 17 18  1  0  0  0  0
 18 19  1  0  0  0  0
 18 25  1  0  0  0  0
 19 20  2  0  0  0  0
 20 21  1  0  0  0  0
 20 22  1  0  0  0  0
 22 23  1  0  0  0  0
 22 24  1  0  0  0  0
 23 24  1  0  0  0  0
 26 27  2  0  0  0  0
 26 32  1  0  0  0  0
 27 28  1  0  0  0  0
 28 29  1  0  0  0  0
 28 30  2  0  0  0  0
 30 31  1  0  0  0  0
 31 32  2  0  0  0  0
 31 42  1  0  0  0  0
 32 33  1  0  0  0  0
 33 34  2  0  0  0  0
 34 35  1  0  0  0  0
 34 41  1  0  0  0  0
 35 36  1  0  0  0  0
 35 38  1  0  0  0  0
 36 37  2  0  0  0  0
 37 38  1  0  0  0  0
 38 39  1  0  0  0  0
 39 40  1  6  0  0  0
 39 44  1  0  0  0  0
 40 41  1  0  0  0  0
 41 42  2  0  0  0  0
 42 43  1  0  0  0  0
 44 45  1  1  0  0  0
 44 46  1  0  0  0  0
 44 47  1  0  0  0  0
 46 47  1  0  0  0  0
 47 48  1  0  0  0  0
 49 50  2  0  0  0  0
 49 51  1  0  0  0  0
 51 52  2  0  0  0  0
 51 53  1  0  0  0  0
 53 54  2  0  0  0  0
M  CHG  2  21   1  28   1
M  END
$$$$