
 OpenBabel11262001513D

 54 62  0  0  1  0  0  0  0  0999 V2000
    7.3086   -7.2281    2.7212 O   0  0  0  0  0  0  0  0  0  0  0  0
    6.5972   -6.4733    3.6176 C   0  0  0  0  0  0  0  0  0  0  0  0
    5.5263   -5.7479    3.2697 C   0  0  0  0  0  0  0  0  0  0  0  0
    5.1163   -5.7018    1.9500 O   0  0  0  0  0  0  0  0  0  0  0  0
    3.8136   -5.1750    1.6888 C   0  0  2  0  0  0  0  0  0  0  0  0
    3.6505   -4.8383    0.2929 O   0  0  0  0  0  0  0  0  0  0  0  0
    3.8041   -5.8782   -0.6182 C   0  0  0  0  0  0  0  0  0  0  0  0
    4.2770   -5.6595   -1.8626 C   0  0  0  0  0  0  0  0  0  0  0  0
    4.4390   -6.6537   -2.8236 O   0  0  0  0  0  0  0  0  0  0  0  0
    3.9889   -7.9294   -2.5476 C   0  0  0  0  0  0  0  0  0  0  0  0
    3.4164   -8.2453   -1.3380 C   0  0  0  0  0  0  0  0  0  0  0  0
    3.3475   -7.2541   -0.2256 C   0  0  0  0  0  0  0  0  0  0  0  0
    2.9364   -9.5393   -1.1987 C   0  0  0  0  0  0  0  0  0  0  0  0
    2.3442   -9.8946    0.0205 O   0  0  0  0  0  0  0  0  0  0  0  0
    1.4715  -10.9800    0.1078 C   0  0  0  0  0  0  0  0  0  0  0  0
    0.7445  -11.1284    1.0807 O   0  0  0  0  0  0  0  0  0  0  0  0
    1.4426  -11.8082   -0.9608 O   0  0  0  0  0  0  0  0  0  0  0  0
    2.5409  -11.8482   -1.8729 C   0  0  3  0  0  0  0  0  0  0  0  0
    3.0507  -10.4882   -2.1985 C   0  0  0  0  0  0  0  0  0  0  0  0
    3.6941  -10.1197   -3.3834 C   0  0  0  0  0  0  0  0  0  0  0  0
    4.1415   -8.8342   -3.5447 N   0  0  0  0  0  0  0  0  0  0  0  0
    3.9959  -11.0834   -4.5148 C   0  0  0  0  0  0  0  0  0  0  0  0
    3.0981  -12.1626   -4.8122 O   0  0  0  0  0  0  0  0  0  0  0  0
    3.1419  -11.0110   -5.6699 O   0  0  0  0  0  0  0  0  0  0  0  0
    3.5770  -12.6703   -1.3597 O   0  0  0  0  0  0  0  0  0  0  0  0
    4.6468   -4.3161   -2.3492 C   0  0  0  0  0  0  0  0  0  0  0  0
    3.6479   -3.5608   -2.9645 C   0  0  0  0  0  0  0  0  0  0  0  0
    3.9819   -2.3231   -3.4626 C   0  0  0  0  0  0  0  0  0  0  0  0
    3.0264   -1.5930   -4.0544 F   0  0  0  0  0  0  0  0  0  0  0  0
    5.2169   -1.7967   -3.4021 N   0  0  0  0  0  0  0  0  0  0  0  0
    6.1925   -2.5108   -2.8110 C   0  0  0  0  0  0  0  0  0  0  0  0
    5.9581   -3.7882   -2.2488 C   0  0  0  0  0  0  0  0  0  0  0  0
    7.0326   -4.4744   -1.6351 C   0  0  0  0  0  0  0  0  0  0  0  0
    8.3159   -3.9194   -1.6015 C   0  0  0  0  0  0  0  0  0  0  0  0
    9.4258   -4.6692   -1.0068 C   0  0  0  0  0  0  0  0  0  0  0  0
    9.2596   -5.6984   -0.3729 O   0  0  0  0  0  0  0  0  0  0  0  0
   10.8053   -4.1014   -1.2171 C   0  0  0  0  0  0  0  0  0  0  0  0
   11.7924   -4.8213   -1.1729 O   0  0  0  0  0  0  0  0  0  0  0  0
   10.8315   -2.6060   -1.3991 C   0  0  1  0  0  0  0  0  0  0  0  0
    9.7735   -2.0579   -2.1882 O   0  0  0  0  0  0  0  0  0  0  0  0
    8.5554   -2.6747   -2.1562 C   0  0  0  0  0  0  0  0  0  0  0  0
    7.4892   -1.9931   -2.7520 C   0  0  0  0  0  0  0  0  0  0  0  0
    7.7358   -0.7880   -3.2974 F   0  0  0  0  0  0  0  0  0  0  0  0
   10.8935   -1.9103   -0.0722 C   0  0  1  0  0  0  0  0  0  0  0  0
    9.7961   -2.1389    0.8362 O   0  0  0  0  0  0  0  0  0  0  0  0
   12.1711   -1.8719    0.5657 O   0  0  0  0  0  0  0  0  0  0  0  0
   11.6949   -0.7028    0.0919 C   0  0  0  0  0  0  0  0  0  0  0  0
   12.1896    0.0660   -0.7016 O   0  0  0  0  0  0  0  0  0  0  0  0
    3.5262   -3.9314    2.5264 C   0  0  3  0  0  0  0  0  0  0  0  0
    3.5239   -4.3238    3.9858 C   0  0  3  0  0  0  0  0  0  0  0  0
    4.8255   -4.9872    4.3585 C   0  0  0  0  0  0  0  0  0  0  0  0
    5.2480   -4.9947    5.5148 O   0  0  0  0  0  0  0  0  0  0  0  0
    3.2509   -3.2234    4.7445 F   0  0  0  0  0  0  0  0  0  0  0  0
    4.4989   -2.9990    2.3087 F   0  0  0  0  0  0  0  0  0  0  0  0
  1  2  1  0  0  0  0
  2  3  2  0  0  0  0
  3  4  1  0  0  0  0
  3 51  1  0  0  0  0
  4  5  1  0  0  0  0
  5  6  1  6  0  0  0
  5 49  1  0  0  0  0
  6  7  1  0  0  0  0
  7  8  2  0  0  0  0
  7 12  1  0  0  0  0
  8  9  1  0  0  0  0
  8 26  1  0  0  0  0
  9 10  1  0  0  0  0
 10 11  2  0  0  0  0
 10 21  1  0  0  0  0
 11 12  1  0  0  0  0
 11 13  1  0  0  0  0
 13 14  1  0  0  0  0
 13 19  2  0  0  0  0
 14 15  1  0  0  0  0
 15 16  2  0  0  0  0
 15 17  1  0  0  0  0
 17 18  1  0  0  0  0
 18 19  1  0  0  0  0
 18 25  1  0  0  0  0
 19 20  1  0  0  0  0
 20 21  2  0  0  0  0
 20 22  1  0  0  0  0
 22 23  1  0  0  0  0
 22 24  1  0  0  0  0
 23 24  1  0  0  0  0
 26 27  2  0  0  0  0
 26 32  1  0  0  0  0
 27 28  1  0  0  0  0
 28 29  1  0  0  0  0
 28 30  2  0  0  0  0
 30 31  1  0  0  0  0
 31 32  2  0  0  0  0
 31 42  1  0  0  0  0
 32 33  1  0  0  0  0
 33 34  2  0  0  0  0
 34 35  1  0  0  0  0
 34 41  1  0  0  0  0
 35 36  2  0  0  0  0
 35 37  1  0  0  0  0
 37 38  2  0  0  0  0
 39 37  1  1  0  0  0
 39 40  1  0  0  0  0
 39 44  1  0  0  0  0
 40 41  1  0  0  0  0
 41 42  2  0  0  0  0
 42 43  1  0  0  0  0
 44 45  1  1  0  0  0
 44 46  1  0  0  0  0
 44 47  1  0  0  0  0
 46 47  1  0  0  0  0
 47 48  2  0  0  0  0
 49 50  1  0  0  0  0
 49 54  1  0  0  0  0
 50 51  1  0  0  0  0
 50 53  1  0  0  0  0
 51 52  2  0  0  0  0
M  END
$$$$