
 OpenBabel11172006033D

 52 60  0  0  1  0  0  0  0  0999 V2000
    7.4758   -1.4473    5.6241 O   0  0  0  0  0  0  0  0  0  0  0  0
    7.2415   -0.4430    4.7196 C   0  0  0  0  0  0  0  0  0  0  0  0
    6.0954   -0.2839    4.0495 C   0  0  0  0  0  0  0  0  0  0  0  0
    5.0360   -1.1539    4.2278 O   0  0  0  0  0  0  0  0  0  0  0  0
    3.7765   -0.4817    4.3469 C   0  0  2  0  0  0  0  0  0  0  0  0
    2.7109   -1.4326    4.4924 O   0  0  0  0  0  0  0  0  0  0  0  0
    2.7873   -2.2963    5.5758 C   0  0  0  0  0  0  0  0  0  0  0  0
    2.2598   -3.5371    5.5154 C   0  0  0  0  0  0  0  0  0  0  0  0
    2.2818   -4.4342    6.5780 O   0  0  0  0  0  0  0  0  0  0  0  0
    2.7902   -4.0125    7.7988 C   0  0  0  0  0  0  0  0  0  0  0  0
    3.3030   -2.7840    7.9698 C   0  0  0  0  0  0  0  0  0  0  0  0
    3.4057   -1.8009    6.8562 C   0  0  0  0  0  0  0  0  0  0  0  0
    3.8277   -2.3508    9.3102 C   0  0  3  0  0  0  0  0  0  0  0  0
    3.0557   -1.2234    9.7141 O   0  0  0  0  0  0  0  0  0  0  0  0
    3.0584   -0.7912   10.9994 C   0  0  0  0  0  0  0  0  0  0  0  0
    2.5217    0.2649   11.3087 O   0  0  0  0  0  0  0  0  0  0  0  0
    3.6555   -1.5789   11.9256 O   0  0  0  0  0  0  0  0  0  0  0  0
    4.2426   -2.8429   11.6336 C   0  0  1  0  0  0  0  0  0  0  0  0
    3.7357   -3.3945   10.3626 C   0  0  0  0  0  0  0  0  0  0  0  0
    3.2211   -4.6244   10.1356 C   0  0  0  0  0  0  0  0  0  0  0  0
    2.7563   -4.8916    8.8515 N   0  0  0  0  0  0  0  0  0  0  0  0
    3.1758   -5.5518   11.1693 N   0  0  0  0  0  0  0  0  0  0  0  0
    2.8047   -6.8550   10.8254 O   0  0  0  0  0  0  0  0  0  0  0  0
    1.9020   -5.9845   11.5418 O   0  0  0  0  0  0  0  0  0  0  0  0
    5.6462   -2.6752   11.5164 O   0  0  0  0  0  0  0  0  0  0  0  0
    1.6096   -4.0494    4.2990 C   0  0  0  0  0  0  0  0  0  0  0  0
    0.2481   -3.8505    4.1389 C   0  0  0  0  0  0  0  0  0  0  0  0
   -0.4154   -4.2372    3.0352 N   0  0  0  0  0  0  0  0  0  0  0  0
    0.2711   -4.8332    2.0151 N   0  0  0  0  0  0  0  0  0  0  0  0
    1.5904   -5.0528    2.1041 C   0  0  0  0  0  0  0  0  0  0  0  0
    2.3153   -4.6856    3.2546 C   0  0  0  0  0  0  0  0  0  0  0  0
    3.6981   -4.9713    3.3039 C   0  0  0  0  0  0  0  0  0  0  0  0
    4.3399   -5.5877    2.2256 C   0  0  0  0  0  0  0  0  0  0  0  0
    3.6306   -5.9106    1.0786 C   0  0  0  0  0  0  0  0  0  0  0  0
    2.2593   -5.6506    1.0383 C   0  0  0  0  0  0  0  0  0  0  0  0
    4.1651   -6.4898   -0.0375 O   0  0  0  0  0  0  0  0  0  0  0  0
    5.5924   -6.5466   -0.1295 C   0  0  2  0  0  0  0  0  0  0  0  0
    6.3308   -6.7267    1.1759 C   0  0  0  0  0  0  0  0  0  0  0  0
    7.3217   -7.4278    1.3249 O   0  0  0  0  0  0  0  0  0  0  0  0
    5.7624   -5.9262    2.3206 C   0  0  0  0  0  0  0  0  0  0  0  0
    6.4441   -5.6054    3.2812 O   0  0  0  0  0  0  0  0  0  0  0  0
    6.1171   -5.3573   -0.8686 C   0  0  1  0  0  0  0  0  0  0  0  0
    5.8438   -4.0586   -0.2849 O   0  0  0  0  0  0  0  0  0  0  0  0
    7.4353   -5.5292   -1.3964 O   0  0  0  0  0  0  0  0  0  0  0  0
    6.4454   -5.3587   -2.2960 C   0  0  0  0  0  0  0  0  0  0  0  0
    6.3032   -4.4992   -3.1302 O   0  0  0  0  0  0  0  0  0  0  0  0
    3.4324    0.4076    3.1566 C   0  0  0  0  0  0  0  0  0  0  0  0
    2.3252    0.8512    2.8890 O   0  0  0  0  0  0  0  0  0  0  0  0
    4.6452    0.8252    2.3647 C   0  0  0  0  0  0  0  0  0  0  0  0
    4.5641    1.0943    1.1785 O   0  0  0  0  0  0  0  0  0  0  0  0
    5.9759    0.8354    3.0766 C   0  0  0  0  0  0  0  0  0  0  0  0
    6.8091    1.7020    2.8899 O   0  0  0  0  0  0  0  0  0  0  0  0
  1  2  1  0  0  0  0
  2  3  2  0  0  0  0
  3  4  1  0  0  0  0
  3 51  1  0  0  0  0
  4  5  1  0  0  0  0
  5  6  1  6  0  0  0
  5 47  1  0  0  0  0
  6  7  1  0  0  0  0
  7  8  2  0  0  0  0
  7 12  1  0  0  0  0
  8  9  1  0  0  0  0
  8 26  1  0  0  0  0
  9 10  1  0  0  0  0
 10 11  2  0  0  0  0
 10 21  1  0  0  0  0
 11 12  1  0  0  0  0
 11 13  1  0  0  0  0
 13 14  1  0  0  0  0
 13 19  1  0  0  0  0
 14 15  1  0  0  0  0
 15 16  2  0  0  0  0
 15 17  1  0  0  0  0
 17 18  1  0  0  0  0
 18 19  1  0  0  0  0
 18 25  1  6  0  0  0
 19 20  2  0  0  0  0
 20 21  1  0  0  0  0
 20 22  1  0  0  0  0
 22 23  1  0  0  0  0
 22 24  1  0  0  0  0
 23 24  1  0  0  0  0
 26 27  2  0  0  0  0
 26 31  1  0  0  0  0
 27 28  1  0  0  0  0
 28 29  2  0  0  0  0
 29 30  1  0  0  0  0
 30 31  2  0  0  0  0
 30 35  1  0  0  0  0
 31 32  1  0  0  0  0
 32 33  2  0  0  0  0
 33 34  1  0  0  0  0
 33 40  1  0  0  0  0
 34 35  2  0  0  0  0
 34 36  1  0  0  0  0
 37 36  1  1  0  0  0
 37 38  1  0  0  0  0
 37 42  1  0  0  0  0
 38 39  2  0  0  0  0
 38 40  1  0  0  0  0
 40 41  2  0  0  0  0
 42 43  1  1  0  0  0
 42 44  1  0  0  0  0
 42 45  1  0  0  0  0
 44 45  1  0  0  0  0
 45 46  2  0  0  0  0
 47 48  2  0  0  0  0
 47 49  1  0  0  0  0
 49 50  2  0  0  0  0
 49 51  1  0  0  0  0
 51 52  2  0  0  0  0
M  END
$$$$