
 OpenBabel11232002573D

 54 62  0  0  1  0  0  0  0  0999 V2000
    3.5274   -4.6192   -2.9005 O   0  0  0  0  0  0  0  0  0  0  0  0
    3.3541   -3.2660   -2.7318 C   0  0  0  0  0  0  0  0  0  0  0  0
    2.7434   -2.7390   -1.6621 C   0  0  0  0  0  0  0  0  0  0  0  0
    2.1514   -3.5451   -0.7062 O   0  0  0  0  0  0  0  0  0  0  0  0
    2.4783   -3.1880    0.6324 C   0  0  2  0  0  0  0  0  0  0  0  0
    1.9084   -4.1258    1.5982 O   0  0  0  0  0  0  0  0  0  0  0  0
    2.2180   -5.4810    1.5141 C   0  0  0  0  0  0  0  0  0  0  0  0
    1.6558   -6.4125    2.3336 C   0  0  0  0  0  0  0  0  0  0  0  0
    1.9238   -7.7892    2.1409 O   0  0  0  0  0  0  0  0  0  0  0  0
    2.8847   -8.2250    1.2162 C   0  0  0  0  0  0  0  0  0  0  0  0
    3.5665   -7.3428    0.4724 C   0  0  0  0  0  0  0  0  0  0  0  0
    3.2357   -5.8920    0.4771 C   0  0  0  0  0  0  0  0  0  0  0  0
    4.6261   -7.7580   -0.5009 C   0  0  3  0  0  0  0  0  0  0  0  0
    5.8950   -7.3417    0.0076 N   0  0  0  0  0  0  0  0  0  0  0  0
    7.0515   -7.7720   -0.5565 C   0  0  0  0  0  0  0  0  0  0  0  0
    8.1036   -7.1885   -0.3454 O   0  0  0  0  0  0  0  0  0  0  0  0
    6.9740   -8.8935   -1.3093 N   0  0  0  0  0  0  0  0  0  0  0  0
    5.7746   -9.5804   -1.6557 C   0  0  3  0  0  0  0  0  0  0  0  0
    4.7113   -9.2430   -0.6551 C   0  0  0  0  0  0  0  0  0  0  0  0
    3.9505  -10.0890    0.0813 C   0  0  0  0  0  0  0  0  0  0  0  0
    3.0952   -9.5819    1.0666 O   0  3  0  0  0  0  0  0  0  0  0  0
    3.9673  -11.5615   -0.0681 C   0  0  3  0  0  0  0  0  0  0  0  0
    3.0667  -12.2882    0.7727 N   0  0  0  0  0  0  0  0  0  0  0  0
    4.2742  -12.3624    1.0583 N   0  0  0  0  0  0  0  0  0  0  0  0
    5.3538   -9.1004   -2.9085 O   0  0  0  0  0  0  0  0  0  0  0  0
    0.6963   -6.1217    3.4826 C   0  0  0  0  0  0  0  0  0  0  0  0
   -0.1806   -5.0360    3.3967 C   0  0  0  0  0  0  0  0  0  0  0  0
   -1.0483   -4.7507    4.3765 N   0  3  0  0  0  0  0  0  0  0  0  0
   -1.8774   -3.6981    4.2319 F   0  0  0  0  0  0  0  0  0  0  0  0
   -1.1449   -5.4650    5.4772 N   0  0  0  0  0  0  0  0  0  0  0  0
   -0.3576   -6.5226    5.6535 C   0  0  0  0  0  0  0  0  0  0  0  0
    0.5980   -6.9047    4.6811 C   0  0  0  0  0  0  0  0  0  0  0  0
    1.3855   -8.0387    4.9980 C   0  0  0  0  0  0  0  0  0  0  0  0
    1.2051   -8.7774    6.1806 C   0  0  0  0  0  0  0  0  0  0  0  0
    2.0086   -9.9796    6.4054 C   0  0  0  0  0  0  0  0  0  0  0  0
    2.8059  -10.3578    5.5611 O   0  0  0  0  0  0  0  0  0  0  0  0
    1.7529  -10.7215    7.6939 C   0  0  0  0  0  0  0  0  0  0  0  0
    2.6385  -11.3868    8.2054 O   0  0  0  0  0  0  0  0  0  0  0  0
    0.3478  -10.5429    8.2264 C   0  0  1  0  0  0  0  0  0  0  0  0
   -0.0710   -9.1577    8.2088 O   0  0  0  0  0  0  0  0  0  0  0  0
    0.2404   -8.4206    7.0991 C   0  0  0  0  0  0  0  0  0  0  0  0
   -0.5049   -7.2724    6.8319 C   0  0  0  0  0  0  0  0  0  0  0  0
   -1.4386   -6.8918    7.7201 F   0  0  0  0  0  0  0  0  0  0  0  0
   -0.6242  -11.4757    7.5395 C   0  0  1  0  0  0  0  0  0  0  0  0
   -0.3535  -12.8795    7.6463 O   0  0  0  0  0  0  0  0  0  0  0  0
   -2.0166  -11.1059    7.6175 O   0  0  0  0  0  0  0  0  0  0  0  0
   -1.4576  -11.0967    6.4035 C   0  0  0  0  0  0  0  0  0  0  0  0
   -1.3334  -10.2262    5.5558 O   0  0  0  0  0  0  0  0  0  0  0  0
    1.9046   -1.8134    0.9224 C   0  0  0  0  0  0  0  0  0  0  0  0
    1.2511   -1.5390    1.9209 O   0  0  0  0  0  0  0  0  0  0  0  0
    2.2124   -0.7913   -0.1567 C   0  0  0  0  0  0  0  0  0  0  0  0
    2.1153    0.3973    0.0986 O   0  0  0  0  0  0  0  0  0  0  0  0
    2.6767   -1.2569   -1.5284 C   0  0  0  0  0  0  0  0  0  0  0  0
    2.9989   -0.4808   -2.4094 O   0  0  0  0  0  0  0  0  0  0  0  0
  1  2  1  0  0  0  0
  2  3  2  0  0  0  0
  3  4  1  0  0  0  0
  3 53  1  0  0  0  0
  4  5  1  0  0  0  0
  5  6  1  1  0  0  0
  5 49  1  0  0  0  0
  6  7  1  0  0  0  0
  7  8  2  0  0  0  0
  7 12  1  0  0  0  0
  8  9  1  0  0  0  0
  8 26  1  0  0  0  0
  9 10  1  0  0  0  0
 10 11  2  0  0  0  0
 10 21  1  0  0  0  0
 11 12  1  0  0  0  0
 11 13  1  0  0  0  0
 13 14  1  0  0  0  0
 13 19  1  0  0  0  0
 14 15  1  0  0  0  0
 15 16  2  0  0  0  0
 15 17  1  0  0  0  0
 17 18  1  0  0  0  0
 18 19  1  0  0  0  0
 18 25  1  0  0  0  0
 19 20  2  0  0  0  0
 20 21  1  0  0  0  0
 20 22  1  0  0  0  0
 22 23  1  0  0  0  0
 22 24  1  0  0  0  0
 23 24  2  0  0  0  0
 26 27  2  0  0  0  0
 26 32  1  0  0  0  0
 27 28  1  0  0  0  0
 28 29  1  0  0  0  0
 28 30  2  0  0  0  0
 30 31  1  0  0  0  0
 31 32  2  0  0  0  0
 31 42  1  0  0  0  0
 32 33  1  0  0  0  0
 33 34  2  0  0  0  0
 34 35  1  0  0  0  0
 34 41  1  0  0  0  0
 35 36  2  0  0  0  0
 35 37  1  0  0  0  0
 37 38  2  0  0  0  0
 39 37  1  6  0  0  0
 39 40  1  0  0  0  0
 39 44  1  0  0  0  0
 40 41  1  0  0  0  0
 41 42  2  0  0  0  0
 42 43  1  0  0  0  0
 44 45  1  1  0  0  0
 44 46  1  0  0  0  0
 44 47  1  0  0  0  0
 46 47  1  0  0  0  0
 47 48  2  0  0  0  0
 49 50  2  0  0  0  0
 49 51  1  0  0  0  0
 51 52  2  0  0  0  0
 51 53  1  0  0  0  0
 53 54  2  0  0  0  0
M  CHG  2  21   1  28   1
M  END
$$$$