
 OpenBabel09232003443D

 55 63  0  0  1  0  0  0  0  0999 V2000
   -2.3960  -10.6627   11.0160 O   0  0  0  0  0  0  0  0  0  0  0  0
   -2.1970  -10.6424    9.6112 C   0  0  0  0  0  0  0  0  0  0  0  0
   -0.8316  -11.2206    9.2653 C   0  0  1  0  0  0  0  0  0  0  0  0
   -0.6212  -11.1950    7.8449 O   0  0  0  0  0  0  0  0  0  0  0  0
    0.7854  -11.2388    7.6256 C   0  0  1  0  0  0  0  0  0  0  0  0
    1.4703  -11.1702    9.0018 C   0  0  2  0  0  0  0  0  0  0  0  0
    0.4036  -10.5708    9.9082 C   0  0  3  0  0  0  0  0  0  0  0  0
    0.4046   -9.0196   10.0139 C   0  0  2  0  0  0  0  0  0  0  0  0
    0.2253   -8.3671    8.7618 O   0  0  0  0  0  0  0  0  0  0  0  0
    1.2815   -7.6761    8.2453 C   0  0  0  0  0  0  0  0  0  0  0  0
    1.1852   -7.3368    6.8968 C   0  0  0  0  0  0  0  0  0  0  0  0
    2.3133   -6.8767    6.1917 C   0  0  0  0  0  0  0  0  0  0  0  0
    2.2474   -6.6753    4.8143 C   0  0  0  0  0  0  0  0  0  0  0  0
    3.4177   -6.3871    4.1359 C   0  0  0  0  0  0  0  0  0  0  0  0
    4.6335   -6.2927    4.7234 N   0  0  0  0  0  0  0  0  0  0  0  0
    4.6993   -6.4513    6.0734 C   0  0  0  0  0  0  0  0  0  0  0  0
    3.5478   -6.6918    6.8623 C   0  0  0  0  0  0  0  0  0  0  0  0
    3.5489   -6.8086    8.2637 C   0  0  0  0  0  0  0  0  0  0  0  0
    2.4364   -7.3382    8.9325 C   0  0  0  0  0  0  0  0  0  0  0  0
    2.5368   -7.6202   10.3603 C   0  0  0  0  0  0  0  0  0  0  0  0
    3.4298   -7.1366   11.0422 O   0  0  0  0  0  0  0  0  0  0  0  0
    1.5260   -8.5719   10.9469 C   0  0  0  0  0  0  0  0  0  0  0  0
    1.6391   -8.9465   12.1089 O   0  0  0  0  0  0  0  0  0  0  0  0
    6.0860   -6.4872    6.6256 C   0  0  0  0  0  0  0  0  0  0  0  0
    6.7839   -7.6351    6.8225 C   0  0  0  0  0  0  0  0  0  0  0  0
    6.2416   -8.9076    6.6127 O   0  0  0  0  0  0  0  0  0  0  0  0
    6.8437  -10.0066    7.3251 C   0  0  1  0  0  0  0  0  0  0  0  0
    6.6387   -9.8893    8.7489 O   0  0  0  0  0  0  0  0  0  0  0  0
    7.2612  -10.8682    9.5096 C   0  0  0  0  0  0  0  0  0  0  0  0
    7.4311  -10.7351   10.8278 C   0  0  0  0  0  0  0  0  0  0  0  0
    7.0067   -9.6661   11.5718 O   0  0  0  0  0  0  0  0  0  0  0  0
    7.7039  -12.1719    8.9148 C   0  0  0  0  0  0  0  0  0  0  0  0
    8.6013  -12.8767    9.3281 O   0  0  0  0  0  0  0  0  0  0  0  0
    6.9032  -12.5060    7.6547 C   0  0  0  0  0  0  0  0  0  0  0  0
    6.7574  -13.6538    7.3074 O   0  0  0  0  0  0  0  0  0  0  0  0
    6.2887  -11.3463    6.8980 C   0  0  0  0  0  0  0  0  0  0  0  0
    5.4342  -11.5503    6.0502 O   0  0  0  0  0  0  0  0  0  0  0  0
    8.2231   -7.5545    7.2377 C   0  0  0  0  0  0  0  0  0  0  0  0
    8.7004   -6.1969    7.6040 C   0  0  0  0  0  0  0  0  0  0  0  0
    7.8766   -5.1014    7.4540 C   0  0  0  0  0  0  0  0  0  0  0  0
    6.6110   -5.2153    6.8960 O   0  0  0  0  0  0  0  0  0  0  0  0
    8.2468   -3.8598    7.8472 N   0  0  0  0  0  0  0  0  0  0  0  0
    9.4684   -3.6813    8.4509 C   0  0  0  0  0  0  0  0  0  0  0  0
    9.8402   -2.2833    8.9105 C   0  0  0  0  0  0  0  0  0  0  0  0
   10.5464   -1.4149    7.9684 N   0  0  0  0  0  0  0  0  0  0  0  0
    9.1894   -1.1331    8.2815 N   0  0  0  0  0  0  0  0  0  0  0  0
   10.3566   -4.7500    8.6212 C   0  0  0  0  0  0  0  0  0  0  0  0
    9.9645   -6.0024    8.1654 C   0  0  0  0  0  0  0  0  0  0  0  0
   10.8582   -7.0736    8.2951 N   0  0  0  0  0  0  0  0  0  0  0  0
   12.0276   -7.0269    8.9829 C   0  0  0  0  0  0  0  0  0  0  0  0
   12.7312   -8.0229    9.1023 O   0  0  0  0  0  0  0  0  0  0  0  0
   12.3489   -5.8448    9.5586 N   0  0  0  0  0  0  0  0  0  0  0  0
   11.7329   -4.5893    9.1991 C   0  0  0  0  0  0  0  0  0  0  0  0
    2.6967  -10.4524    8.9915 O   0  0  0  0  0  0  0  0  0  0  0  0
    1.1136  -12.4612    6.9965 O   0  0  0  0  0  0  0  0  0  0  0  0
  1  2  1  0  0  0  0
  3  2  1  6  0  0  0
  3  4  1  0  0  0  0
  3  7  1  0  0  0  0
  4  5  1  0  0  0  0
  5  6  1  0  0  0  0
  5 55  1  1  0  0  0
  6  7  1  0  0  0  0
  6 54  1  6  0  0  0
  8  9  1  6  0  0  0
  8 22  1  0  0  0  0
  8  7  1  0  0  0  0
  9 10  1  0  0  0  0
 10 11  2  0  0  0  0
 10 19  1  0  0  0  0
 11 12  1  0  0  0  0
 12 13  2  0  0  0  0
 12 17  1  0  0  0  0
 13 14  1  0  0  0  0
 14 15  2  0  0  0  0
 15 16  1  0  0  0  0
 16 17  2  0  0  0  0
 16 24  1  0  0  0  0
 17 18  1  0  0  0  0
 18 19  2  0  0  0  0
 19 20  1  0  0  0  0
 20 21  2  0  0  0  0
 20 22  1  0  0  0  0
 22 23  2  0  0  0  0
 24 25  2  0  0  0  0
 24 41  1  0  0  0  0
 25 26  1  0  0  0  0
 25 38  1  0  0  0  0
 27 26  1  6  0  0  0
 27 28  1  0  0  0  0
 27 36  1  0  0  0  0
 28 29  1  0  0  0  0
 29 30  2  0  0  0  0
 29 32  1  0  0  0  0
 30 31  1  0  0  0  0
 32 33  2  0  0  0  0
 32 34  1  0  0  0  0
 34 35  2  0  0  0  0
 34 36  1  0  0  0  0
 36 37  2  0  0  0  0
 38 39  1  0  0  0  0
 39 40  2  0  0  0  0
 39 48  1  0  0  0  0
 40 41  1  0  0  0  0
 40 42  1  0  0  0  0
 42 43  2  0  0  0  0
 43 44  1  0  0  0  0
 43 47  1  0  0  0  0
 44 45  1  0  0  0  0
 44 46  1  0  0  0  0
 45 46  1  0  0  0  0
 47 48  2  0  0  0  0
 47 53  1  0  0  0  0
 48 49  1  0  0  0  0
 49 50  1  0  0  0  0
 50 51  2  0  0  0  0
 50 52  1  0  0  0  0
 52 53  1  0  0  0  0
M  END
$$$$