
 OpenBabel11222023183D

 54 63  0  0  1  0  0  0  0  0999 V2000
   -5.4984  -17.3582    8.6727 O   0  0  0  0  0  0  0  0  0  0  0  0
   -5.9811  -16.6403    9.7394 C   0  0  0  0  0  0  0  0  0  0  0  0
   -6.1729  -15.3170    9.6919 C   0  0  0  0  0  0  0  0  0  0  0  0
   -5.8475  -14.6081    8.5446 O   0  0  0  0  0  0  0  0  0  0  0  0
   -6.6774  -13.4801    8.3132 C   0  0  2  0  0  0  0  0  0  0  0  0
   -6.2987  -12.7652    7.1226 O   0  0  0  0  0  0  0  0  0  0  0  0
   -6.2730  -13.3778    5.8880 C   0  0  0  0  0  0  0  0  0  0  0  0
   -5.8953  -12.6758    4.7955 C   0  0  0  0  0  0  0  0  0  0  0  0
   -5.9252  -13.2600    3.5215 O   0  0  0  0  0  0  0  0  0  0  0  0
   -6.5628  -14.4847    3.3110 C   0  0  0  0  0  0  0  0  0  0  0  0
   -6.9181  -15.2610    4.3509 C   0  0  0  0  0  0  0  0  0  0  0  0
   -6.7074  -14.8237    5.7709 C   0  0  0  0  0  0  0  0  0  0  0  0
   -7.5259  -16.6248    4.1462 C   0  0  3  0  0  0  0  0  0  0  0  0
   -8.7451  -16.7020    4.8743 O   0  0  0  0  0  0  0  0  0  0  0  0
   -9.3241  -17.9232    4.8201 C   0  0  0  0  0  0  0  0  0  0  0  0
  -10.1670  -18.2940    5.7024 N   0  0  0  0  0  0  0  0  0  0  0  0
   -8.9391  -18.7328    3.8147 O   0  0  0  0  0  0  0  0  0  0  0  0
   -8.6710  -18.1166    2.5641 C   0  0  3  0  0  0  0  0  0  0  0  0
   -7.8686  -16.8652    2.7207 C   0  0  0  0  0  0  0  0  0  0  0  0
   -7.5205  -16.0200    1.7257 C   0  0  0  0  0  0  0  0  0  0  0  0
   -6.8026  -14.8640    2.0056 O   0  3  0  0  0  0  0  0  0  0  0  0
   -7.8909  -16.2236    0.3064 C   0  0  0  0  0  0  0  0  0  0  0  0
   -9.1069  -15.6620   -0.2192 O   0  0  0  0  0  0  0  0  0  0  0  0
   -7.8313  -15.1213   -0.6238 O   0  0  0  0  0  0  0  0  0  0  0  0
   -7.8671  -18.9881    1.7932 O   0  0  0  0  0  0  0  0  0  0  0  0
   -5.4055  -11.2420    4.8261 C   0  0  0  0  0  0  0  0  0  0  0  0
   -4.7208  -10.7597    5.9467 C   0  0  0  0  0  0  0  0  0  0  0  0
   -4.2385   -9.5133    5.9926 N   0  3  0  0  0  0  0  0  0  0  0  0
   -3.6248   -9.0915    7.1163 F   0  0  0  0  0  0  0  0  0  0  0  0
   -4.3049   -8.6867    4.9673 N   0  0  0  0  0  0  0  0  0  0  0  0
   -4.9044   -9.0763    3.8407 C   0  0  0  0  0  0  0  0  0  0  0  0
   -5.5168  -10.3421    3.7313 C   0  0  0  0  0  0  0  0  0  0  0  0
   -6.1713  -10.6363    2.5156 C   0  0  0  0  0  0  0  0  0  0  0  0
   -6.0743   -9.8036    1.3970 C   0  0  0  0  0  0  0  0  0  0  0  0
   -5.4541   -8.5794    1.4942 C   0  0  0  0  0  0  0  0  0  0  0  0
   -4.9020   -8.2229    2.7267 C   0  0  0  0  0  0  0  0  0  0  0  0
   -4.2895   -7.0338    2.8354 F   0  0  0  0  0  0  0  0  0  0  0  0
   -5.2997   -7.7303    0.4359 O   0  0  0  0  0  0  0  0  0  0  0  0
   -6.0511   -8.0365   -0.7718 C   0  0  1  0  0  0  0  0  0  0  0  0
   -6.2434   -9.4567   -1.1120 C   0  0  0  0  0  0  0  0  0  0  0  0
   -6.1643   -9.9203   -2.2346 O   0  0  0  0  0  0  0  0  0  0  0  0
   -6.4943  -10.3282    0.0961 C   0  0  0  0  0  0  0  0  0  0  0  0
   -6.9046  -11.4811    0.0200 O   0  0  0  0  0  0  0  0  0  0  0  0
   -7.1314   -7.1923   -1.0694 O   0  0  0  0  0  0  0  0  0  0  0  0
   -5.9452   -7.0855   -1.9254 C   0  0  1  0  0  0  0  0  0  0  0  0
   -4.9222   -6.0758   -1.5553 O   0  0  0  0  0  0  0  0  0  0  0  0
   -5.8813   -5.7241   -2.3793 C   0  0  0  0  0  0  0  0  0  0  0  0
   -5.8721   -5.2127   -3.4763 O   0  0  0  0  0  0  0  0  0  0  0  0
   -6.4459  -12.5062    9.4453 C   0  0  0  0  0  0  0  0  0  0  0  0
   -5.9801  -11.3803    9.3249 O   0  0  0  0  0  0  0  0  0  0  0  0
   -6.7913  -13.1189   10.7778 C   0  0  0  0  0  0  0  0  0  0  0  0
   -7.1755  -12.4057   11.6866 O   0  0  0  0  0  0  0  0  0  0  0  0
   -6.7093  -14.6320   10.9096 C   0  0  0  0  0  0  0  0  0  0  0  0
   -7.0941  -15.2156   11.9056 O   0  0  0  0  0  0  0  0  0  0  0  0
  1  2  1  0  0  0  0
  2  3  2  0  0  0  0
  3  4  1  0  0  0  0
  3 53  1  0  0  0  0
  4  5  1  0  0  0  0
  5  6  1  6  0  0  0
  5 49  1  0  0  0  0
  6  7  1  0  0  0  0
  7  8  2  0  0  0  0
  7 12  1  0  0  0  0
  8  9  1  0  0  0  0
  8 26  1  0  0  0  0
  9 10  1  0  0  0  0
 10 11  2  0  0  0  0
 10 21  1  0  0  0  0
 11 12  1  0  0  0  0
 11 13  1  0  0  0  0
 13 14  1  0  0  0  0
 13 19  1  0  0  0  0
 14 15  1  0  0  0  0
 15 16  2  0  0  0  0
 15 17  1  0  0  0  0
 17 18  1  0  0  0  0
 18 19  1  0  0  0  0
 18 25  1  0  0  0  0
 19 20  2  0  0  0  0
 20 21  1  0  0  0  0
 20 22  1  0  0  0  0
 22 23  1  0  0  0  0
 22 24  1  0  0  0  0
 23 24  1  0  0  0  0
 26 27  2  0  0  0  0
 26 32  1  0  0  0  0
 27 28  1  0  0  0  0
 28 29  1  0  0  0  0
 28 30  2  0  0  0  0
 30 31  1  0  0  0  0
 31 32  2  0  0  0  0
 31 36  1  0  0  0  0
 32 33  1  0  0  0  0
 33 34  2  0  0  0  0
 34 35  1  0  0  0  0
 34 42  1  0  0  0  0
 35 36  2  0  0  0  0
 35 38  1  0  0  0  0
 36 37  1  0  0  0  0
 39 38  1  1  0  0  0
 39 40  1  0  0  0  0
 39 44  1  0  0  0  0
 39 45  1  0  0  0  0
 40 41  2  0  0  0  0
 40 42  1  0  0  0  0
 42 43  2  0  0  0  0
 45 44  1  1  0  0  0
 45 46  1  0  0  0  0
 45 47  1  0  0  0  0
 46 47  1  0  0  0  0
 47 48  2  0  0  0  0
 49 50  2  0  0  0  0
 49 51  1  0  0  0  0
 51 52  2  0  0  0  0
 51 53  1  0  0  0  0
 53 54  2  0  0  0  0
M  CHG  2  21   1  28   1
M  END
$$$$