
 OpenBabel10212021003D

 53 61  0  0  1  0  0  0  0  0999 V2000
    7.5887   -3.1718   -6.3329 O   0  0  0  0  0  0  0  0  0  0  0  0
    7.3957   -3.9719   -5.2339 C   0  0  0  0  0  0  0  0  0  0  0  0
    6.3308   -3.8835   -4.4282 C   0  0  0  0  0  0  0  0  0  0  0  0
    5.3451   -2.9500   -4.7046 O   0  0  0  0  0  0  0  0  0  0  0  0
    4.0934   -3.1855   -4.0458 C   0  0  2  0  0  0  0  0  0  0  0  0
    3.1554   -2.1135   -4.2761 O   0  0  0  0  0  0  0  0  0  0  0  0
    2.8219   -1.8693   -5.6052 C   0  0  0  0  0  0  0  0  0  0  0  0
    2.5091   -0.6252   -6.0265 C   0  0  0  0  0  0  0  0  0  0  0  0
    2.1608   -0.3209   -7.3404 O   0  0  0  0  0  0  0  0  0  0  0  0
    2.1140   -1.3408   -8.2814 C   0  0  0  0  0  0  0  0  0  0  0  0
    2.3560   -2.6165   -7.9413 C   0  0  0  0  0  0  0  0  0  0  0  0
    2.7400   -3.0327   -6.5640 C   0  0  0  0  0  0  0  0  0  0  0  0
    2.2656   -3.6558   -9.0022 C   0  0  0  0  0  0  0  0  0  0  0  0
    2.4046   -4.9077   -8.7120 N   0  0  0  0  0  0  0  0  0  0  0  0
    2.2974   -5.8448   -9.7214 C   0  0  0  0  0  0  0  0  0  0  0  0
    2.3116   -7.0285   -9.4095 O   0  0  0  0  0  0  0  0  0  0  0  0
    2.1723   -5.5143  -11.0574 N   0  0  0  0  0  0  0  0  0  0  0  0
    2.0331   -4.2733  -11.3739 C   0  0  0  0  0  0  0  0  0  0  0  0
    2.0183   -3.1968  -10.3857 C   0  0  0  0  0  0  0  0  0  0  0  0
    1.8105   -1.8887  -10.6331 C   0  0  0  0  0  0  0  0  0  0  0  0
    1.8121   -0.9918   -9.5747 N   0  0  0  0  0  0  0  0  0  0  0  0
    1.5508   -1.3048  -11.9653 C   0  0  3  0  0  0  0  0  0  0  0  0
    1.9524    0.0365  -12.2991 O   0  0  0  0  0  0  0  0  0  0  0  0
    2.7099   -1.0233  -12.8929 C   0  0  0  0  0  0  0  0  0  0  0  0
    2.4906    0.5353   -5.1202 C   0  0  0  0  0  0  0  0  0  0  0  0
    3.6579    1.2012   -5.0539 N   0  0  0  0  0  0  0  0  0  0  0  0
    3.6870    2.2368   -4.2144 C   0  0  0  0  0  0  0  0  0  0  0  0
    4.8446    2.9029   -4.1056 F   0  0  0  0  0  0  0  0  0  0  0  0
    2.6599    2.6751   -3.4765 N   0  0  0  0  0  0  0  0  0  0  0  0
    1.5013    2.0032   -3.5538 C   0  0  0  0  0  0  0  0  0  0  0  0
    1.3442    0.8886   -4.3848 C   0  0  0  0  0  0  0  0  0  0  0  0
    0.0972    0.2044   -4.4167 C   0  0  0  0  0  0  0  0  0  0  0  0
   -0.9722    0.5943   -3.5988 C   0  0  0  0  0  0  0  0  0  0  0  0
   -2.2449   -0.1954   -3.5723 C   0  0  2  0  0  0  0  0  0  0  0  0
   -3.1079    0.2151   -4.6322 O   0  0  0  0  0  0  0  0  0  0  0  0
   -2.9565    0.0069   -2.2350 C   0  0  3  0  0  0  0  0  0  0  0  0
   -4.2029   -0.6883   -2.2231 O   0  0  0  0  0  0  0  0  0  0  0  0
   -3.0666    1.5076   -1.9086 C   0  0  1  0  0  0  0  0  0  0  0  0
   -1.7771    2.1627   -1.9214 O   0  0  0  0  0  0  0  0  0  0  0  0
   -0.8141    1.7063   -2.7802 C   0  0  0  0  0  0  0  0  0  0  0  0
    0.4067    2.3954   -2.7790 C   0  0  0  0  0  0  0  0  0  0  0  0
    0.5289    3.4677   -1.9761 F   0  0  0  0  0  0  0  0  0  0  0  0
   -4.0768    2.2785   -2.7182 C   0  0  1  0  0  0  0  0  0  0  0  0
   -5.4528    1.8374   -2.5988 O   0  0  0  0  0  0  0  0  0  0  0  0
   -3.9092    3.7049   -2.6448 O   0  0  0  0  0  0  0  0  0  0  0  0
   -3.7825    3.1368   -3.8599 C   0  0  0  0  0  0  0  0  0  0  0  0
   -4.3976    3.3532   -4.8800 O   0  0  0  0  0  0  0  0  0  0  0  0
    4.2967   -3.3728   -2.5335 C   0  0  3  0  0  0  0  0  0  0  0  0
    5.0570   -4.6768   -2.3210 C   0  0  3  0  0  0  0  0  0  0  0  0
    6.2766   -4.7798   -3.2281 C   0  0  0  0  0  0  0  0  0  0  0  0
    7.1599   -5.6018   -2.9773 O   0  0  0  0  0  0  0  0  0  0  0  0
    5.4204   -4.7973   -0.9456 O   0  0  0  0  0  0  0  0  0  0  0  0
    5.0190   -2.2836   -1.9385 O   0  0  0  0  0  0  0  0  0  0  0  0
  1  2  1  0  0  0  0
  2  3  2  0  0  0  0
  3  4  1  0  0  0  0
  3 50  1  0  0  0  0
  4  5  1  0  0  0  0
  5  6  1  1  0  0  0
  5 48  1  0  0  0  0
  6  7  1  0  0  0  0
  7  8  2  0  0  0  0
  7 12  1  0  0  0  0
  8  9  1  0  0  0  0
  8 25  1  0  0  0  0
  9 10  1  0  0  0  0
 10 11  2  0  0  0  0
 10 21  1  0  0  0  0
 11 12  1  0  0  0  0
 11 13  1  0  0  0  0
 13 14  2  0  0  0  0
 13 19  1  0  0  0  0
 14 15  1  0  0  0  0
 15 16  2  0  0  0  0
 15 17  1  0  0  0  0
 17 18  2  0  0  0  0
 18 19  1  0  0  0  0
 19 20  2  0  0  0  0
 20 21  1  0  0  0  0
 20 22  1  0  0  0  0
 22 23  1  0  0  0  0
 22 24  1  0  0  0  0
 23 24  1  0  0  0  0
 25 26  2  0  0  0  0
 25 31  1  0  0  0  0
 26 27  1  0  0  0  0
 27 28  1  0  0  0  0
 27 29  2  0  0  0  0
 29 30  1  0  0  0  0
 30 31  2  0  0  0  0
 30 41  1  0  0  0  0
 31 32  1  0  0  0  0
 32 33  2  0  0  0  0
 33 34  1  0  0  0  0
 33 40  1  0  0  0  0
 34 35  1  6  0  0  0
 34 36  1  0  0  0  0
 36 37  1  0  0  0  0
 36 38  1  0  0  0  0
 38 39  1  6  0  0  0
 38 43  1  0  0  0  0
 39 40  1  0  0  0  0
 40 41  2  0  0  0  0
 41 42  1  0  0  0  0
 43 44  1  1  0  0  0
 43 45  1  0  0  0  0
 43 46  1  0  0  0  0
 45 46  1  0  0  0  0
 46 47  2  0  0  0  0
 48 49  1  0  0  0  0
 48 53  1  0  0  0  0
 49 50  1  0  0  0  0
 49 52  1  0  0  0  0
 50 51  2  0  0  0  0
M  END
$$$$