
 OpenBabel11212019413D

 55 63  0  0  1  0  0  0  0  0999 V2000
    7.0225   -0.5408    5.6450 O   0  0  0  0  0  0  0  0  0  0  0  0
    6.7236    0.6433    5.0157 C   0  0  0  0  0  0  0  0  0  0  0  0
    5.5698    0.8486    4.3694 C   0  0  0  0  0  0  0  0  0  0  0  0
    4.6374   -0.1682    4.2702 O   0  0  0  0  0  0  0  0  0  0  0  0
    3.2910    0.2754    4.3308 C   0  0  2  0  0  0  0  0  0  0  0  0
    2.3893   -0.8509    4.2642 O   0  0  0  0  0  0  0  0  0  0  0  0
    2.4934   -1.8169    5.2551 C   0  0  0  0  0  0  0  0  0  0  0  0
    2.1780   -3.1170    5.0251 C   0  0  0  0  0  0  0  0  0  0  0  0
    2.3488   -4.0932    6.0260 O   0  0  0  0  0  0  0  0  0  0  0  0
    2.8611   -3.7367    7.2842 C   0  0  0  0  0  0  0  0  0  0  0  0
    3.0575   -2.4468    7.6066 C   0  0  0  0  0  0  0  0  0  0  0  0
    2.8638   -1.3402    6.6315 C   0  0  0  0  0  0  0  0  0  0  0  0
    3.5325   -2.0080    8.9586 C   0  0  3  0  0  0  0  0  0  0  0  0
    2.4729   -1.2912    9.5635 O   0  0  0  0  0  0  0  0  0  0  0  0
    2.6825   -0.8229   10.8237 C   0  0  0  0  0  0  0  0  0  0  0  0
    1.9772    0.0506   11.3001 O   0  0  0  0  0  0  0  0  0  0  0  0
    3.7156   -1.3827   11.4985 O   0  0  0  0  0  0  0  0  0  0  0  0
    4.2969   -2.6371   11.1503 C   0  0  3  0  0  0  0  0  0  0  0  0
    3.8185   -3.1531    9.8404 C   0  0  0  0  0  0  0  0  0  0  0  0
    3.6518   -4.4385    9.4550 C   0  0  0  0  0  0  0  0  0  0  0  0
    3.1492   -4.7392    8.1903 O   0  3  0  0  0  0  0  0  0  0  0  0
    3.9649   -5.5932   10.3268 C   0  0  0  0  0  0  0  0  0  0  0  0
    2.9714   -6.1526   11.1936 O   0  0  0  0  0  0  0  0  0  0  0  0
    3.4194   -6.8913   10.0399 O   0  0  0  0  0  0  0  0  0  0  0  0
    5.6891   -2.4559   10.9752 O   0  0  0  0  0  0  0  0  0  0  0  0
    1.5647   -3.5920    3.7258 C   0  0  0  0  0  0  0  0  0  0  0  0
    0.7269   -2.6966    3.0503 C   0  0  0  0  0  0  0  0  0  0  0  0
    0.1528   -3.0069    1.8910 N   0  3  0  0  0  0  0  0  0  0  0  0
   -0.6093   -2.0879    1.2680 F   0  0  0  0  0  0  0  0  0  0  0  0
    0.2939   -4.1787    1.3343 N   0  0  0  0  0  0  0  0  0  0  0  0
    1.0376   -5.1247    1.9038 C   0  0  0  0  0  0  0  0  0  0  0  0
    1.6973   -4.8858    3.1393 C   0  0  0  0  0  0  0  0  0  0  0  0
    2.4183   -5.9665    3.7004 C   0  0  0  0  0  0  0  0  0  0  0  0
    2.4426   -7.2352    3.0994 C   0  0  0  0  0  0  0  0  0  0  0  0
    3.1177   -8.3450    3.7752 C   0  0  0  0  0  0  0  0  0  0  0  0
    3.5422   -8.1964    4.9131 O   0  0  0  0  0  0  0  0  0  0  0  0
    3.2178   -9.6569    3.0289 C   0  0  0  0  0  0  0  0  0  0  0  0
    3.5746  -10.6655    3.6185 O   0  0  0  0  0  0  0  0  0  0  0  0
    2.8949   -9.5750    1.5511 C   0  0  1  0  0  0  0  0  0  0  0  0
    1.8379   -8.6508    1.2220 O   0  0  0  0  0  0  0  0  0  0  0  0
    1.8146   -7.4512    1.8877 C   0  0  0  0  0  0  0  0  0  0  0  0
    1.1407   -6.3828    1.2607 C   0  0  0  0  0  0  0  0  0  0  0  0
    0.4544   -6.6665    0.0356 N   0  0  0  0  0  0  0  0  0  0  0  0
    0.5029   -5.4460   -0.7262 F   0  0  0  0  0  0  0  0  0  0  0  0
    4.1396   -9.3415    0.7291 C   0  0  1  0  0  0  0  0  0  0  0  0
    5.1717  -10.3357    0.8165 O   0  0  0  0  0  0  0  0  0  0  0  0
    3.9478   -8.7758   -0.5733 O   0  0  0  0  0  0  0  0  0  0  0  0
    4.5713   -7.9989    0.3370 C   0  0  0  0  0  0  0  0  0  0  0  0
    4.2964   -6.9101    0.7797 O   0  0  0  0  0  0  0  0  0  0  0  0
    2.9906    1.1871    3.1620 C   0  0  0  0  0  0  0  0  0  0  0  0
    2.0547    1.0448    2.3876 O   0  0  0  0  0  0  0  0  0  0  0  0
    3.9761    2.3283    3.0696 C   0  0  0  0  0  0  0  0  0  0  0  0
    3.6473    3.3647    2.5193 O   0  0  0  0  0  0  0  0  0  0  0  0
    5.3347    2.1827    3.7378 C   0  0  0  0  0  0  0  0  0  0  0  0
    6.1347    3.1002    3.7828 O   0  0  0  0  0  0  0  0  0  0  0  0
  1  2  1  0  0  0  0
  2  3  2  0  0  0  0
  3  4  1  0  0  0  0
  3 54  1  0  0  0  0
  4  5  1  0  0  0  0
  5  6  1  6  0  0  0
  5 50  1  0  0  0  0
  6  7  1  0  0  0  0
  7  8  2  0  0  0  0
  7 12  1  0  0  0  0
  8  9  1  0  0  0  0
  8 26  1  0  0  0  0
  9 10  1  0  0  0  0
 10 11  2  0  0  0  0
 10 21  1  0  0  0  0
 11 12  1  0  0  0  0
 11 13  1  0  0  0  0
 13 14  1  0  0  0  0
 13 19  1  0  0  0  0
 14 15  1  0  0  0  0
 15 16  2  0  0  0  0
 15 17  1  0  0  0  0
 17 18  1  0  0  0  0
 18 19  1  0  0  0  0
 18 25  1  0  0  0  0
 19 20  2  0  0  0  0
 20 21  1  0  0  0  0
 20 22  1  0  0  0  0
 22 23  1  0  0  0  0
 22 24  1  0  0  0  0
 23 24  1  0  0  0  0
 26 27  2  0  0  0  0
 26 32  1  0  0  0  0
 27 28  1  0  0  0  0
 28 29  1  0  0  0  0
 28 30  2  0  0  0  0
 30 31  1  0  0  0  0
 31 32  2  0  0  0  0
 31 42  1  0  0  0  0
 32 33  1  0  0  0  0
 33 34  2  0  0  0  0
 34 35  1  0  0  0  0
 34 41  1  0  0  0  0
 35 36  2  0  0  0  0
 35 37  1  0  0  0  0
 37 38  2  0  0  0  0
 39 37  1  1  0  0  0
 39 40  1  0  0  0  0
 39 45  1  0  0  0  0
 40 41  1  0  0  0  0
 41 42  2  0  0  0  0
 42 43  1  0  0  0  0
 43 44  1  0  0  0  0
 45 46  1  1  0  0  0
 45 47  1  0  0  0  0
 45 48  1  0  0  0  0
 47 48  1  0  0  0  0
 48 49  2  0  0  0  0
 50 51  2  0  0  0  0
 50 52  1  0  0  0  0
 52 53  2  0  0  0  0
 52 54  1  0  0  0  0
 54 55  2  0  0  0  0
M  CHG  2  21   1  28   1
M  END
$$$$