
 OpenBabel10252010213D

 93108  0  0  1  0  0  0  0  0999 V2000
    0.6752   -2.0787    0.4825 F   0  0  0  0  0  0  0  0  0  0  0  0
    1.8186   -1.3461    0.6213 C   0  0  3  0  0  0  0  0  0  0  0  0
    2.5594   -1.3465   -0.7257 C   0  0  0  0  0  0  0  0  0  0  0  0
    4.0444   -1.7335   -0.5752 C   0  0  3  0  0  0  0  0  0  0  0  0
    4.7750   -1.5694   -1.9056 C   0  0  0  0  0  0  0  0  0  0  0  0
    5.0469   -2.8880   -2.5734 C   0  0  0  0  0  0  0  0  0  0  0  0
    5.6578   -3.9035   -1.6194 C   0  0  3  0  0  0  0  0  0  0  0  0
    4.7872   -4.2363   -0.4284 C   0  0  0  0  0  0  0  0  0  0  0  0
    4.0795   -3.1076    0.0992 C   0  0  0  0  0  0  0  0  0  0  0  0
    3.2986   -3.2028    1.2665 C   0  0  0  0  0  0  0  0  0  0  0  0
    2.6513   -1.9226    1.7819 C   0  0  3  0  0  0  0  0  0  0  0  0
    1.8569   -1.9959    3.1194 C   0  0  3  0  0  0  0  0  0  0  0  0
    2.2275   -3.2938    3.8883 C   0  0  0  0  0  0  0  0  0  0  0  0
    2.1878   -4.5539    3.0239 C   0  0  0  0  0  0  0  0  0  0  0  0
    3.1332   -4.4364    1.8653 C   0  0  0  0  0  0  0  0  0  0  0  0
    3.7950   -5.5641    1.3202 C   0  0  0  0  0  0  0  0  0  0  0  0
    4.6769   -5.5347    0.1916 C   0  0  0  0  0  0  0  0  0  0  0  0
    5.4004   -6.8392   -0.2415 C   0  0  0  0  0  0  0  0  0  0  0  0
    6.3644   -6.9167   -1.2732 C   0  0  0  0  0  0  0  0  0  0  0  0
    7.0571   -8.0778   -1.7003 C   0  0  0  0  0  0  0  0  0  0  0  0
    7.9924   -7.9745   -2.9023 C   0  0  3  0  0  0  0  0  0  0  0  0
    7.1676   -7.8683   -4.2022 C   0  0  0  0  0  0  0  0  0  0  0  0
    8.0434   -7.8417   -5.4505 C   0  0  0  0  0  0  0  0  0  0  0  0
    9.0002   -9.0399   -5.5159 C   0  0  3  0  0  0  0  0  0  0  0  0
    9.8713   -9.0888   -4.2387 C   0  0  3  0  0  0  0  0  0  0  0  0
    9.0084   -9.1390   -2.9485 C   0  0  3  0  0  0  0  0  0  0  0  0
    8.2718  -10.4752   -2.7419 C   0  0  0  0  0  0  0  0  0  0  0  0
    7.5812  -10.5402   -1.3693 C   0  0  3  0  0  0  0  0  0  0  0  0
    6.8387   -9.2707   -1.0290 C   0  0  0  0  0  0  0  0  0  0  0  0
    5.9032   -9.2642    0.0044 C   0  0  0  0  0  0  0  0  0  0  0  0
    5.1934   -8.1010    0.3629 C   0  0  0  0  0  0  0  0  0  0  0  0
    4.2824   -8.2929    1.3274 F   0  0  0  0  0  0  0  0  0  0  0  0
    8.5833  -10.8906   -0.2621 C   0  0  0  0  0  0  0  0  0  0  0  0
   10.9011  -10.2251   -4.2702 C   0  0  0  0  0  0  0  0  0  0  0  0
    9.8338   -8.9539   -6.7980 C   0  0  0  0  0  0  0  0  0  0  0  0
    2.0983   -0.7030    4.0187 C   0  0  3  0  0  0  0  0  0  0  0  0
    1.6597    0.5403    3.3502 O   0  0  0  0  0  0  0  0  0  0  0  0
    0.9453    1.4400    4.1127 C   0  0  0  0  0  0  0  0  0  0  0  0
    0.0294    1.0070    5.0504 C   0  0  0  0  0  0  0  0  0  0  0  0
    0.0243   -0.4587    5.3895 C   0  0  3  0  0  0  0  0  0  0  0  0
    1.5063   -0.8699    5.4406 C   0  0  3  0  0  0  0  0  0  0  0  0
    2.2502   -0.0254    6.3776 O   0  0  0  0  0  0  0  0  0  0  0  0
    3.2707   -0.6161    7.0825 C   0  0  0  0  0  0  0  0  0  0  0  0
    4.3458    0.2113    7.4318 C   0  0  0  0  0  0  0  0  0  0  0  0
    5.4212   -0.2905    8.1767 C   0  0  0  0  0  0  0  0  0  0  0  0
    5.4279   -1.6237    8.5784 C   0  0  0  0  0  0  0  0  0  0  0  0
    4.3558   -2.4459    8.2498 C   0  0  0  0  0  0  0  0  0  0  0  0
    3.2752   -1.9403    7.5220 C   0  0  0  0  0  0  0  0  0  0  0  0
   -0.5940   -0.6719    6.6613 O   0  0  0  0  0  0  0  0  0  0  0  0
   -0.7200    1.9141    5.8152 C   0  0  0  0  0  0  0  0  0  0  0  0
   -0.3589    3.2751    5.8862 C   0  0  0  0  0  0  0  0  0  0  0  0
    0.6085    3.7289    4.9861 C   0  0  0  0  0  0  0  0  0  0  0  0
    1.1755    2.8197    4.0173 C   0  0  0  0  0  0  0  0  0  0  0  0
    2.0470    3.2713    3.1145 F   0  0  0  0  0  0  0  0  0  0  0  0
    0.9898    5.0759    5.1534 C   0  0  0  0  0  0  0  0  0  0  0  0
    2.0512    5.9328    4.0851 Cl  0  0  0  0  0  0  0  0  0  0  0  0
    0.5849    5.8149    6.3005 C   0  0  0  0  0  0  0  0  0  0  0  0
   -0.2855    5.3492    7.3094 C   0  0  0  0  0  0  0  0  0  0  0  0
   -0.8913    4.1207    6.9324 C   0  0  0  0  0  0  0  0  0  0  0  0
   -2.4366    3.6669    7.5818 Cl  0  0  0  0  0  0  0  0  0  0  0  0
   -0.4785    6.1750    8.6294 C   0  0  0  0  0  0  0  0  0  0  0  0
    0.2060    7.4347    8.7573 C   0  0  0  0  0  0  0  0  0  0  0  0
    0.0134    8.4254    9.8082 C   0  0  0  0  0  0  0  0  0  0  0  0
    0.4838    9.8706    9.9594 C   0  0  0  0  0  0  0  0  0  0  0  0
    0.0476   10.6261   11.0609 C   0  0  0  0  0  0  0  0  0  0  0  0
    0.1394   12.0439   11.0815 N   0  0  0  0  0  0  0  0  0  0  0  0
   -0.6852    9.9553   12.0221 C   0  0  0  0  0  0  0  0  0  0  0  0
   -1.0379    8.6729   11.9262 N   0  0  0  0  0  0  0  0  0  0  0  0
   -0.7753    7.9264   10.8545 N   0  3  0  0  0  0  0  0  0  0  0  0
   -1.3136    6.6728   10.8416 N   0  3  0  0  0  0  0  0  0  0  0  0
   -1.2115    5.8129    9.7886 C   0  0  0  0  0  0  0  0  0  0  0  0
   -1.8067    4.6191   10.0016 O   0  0  0  0  0  0  0  0  0  0  0  0
   -2.2166    6.1515   12.2278 Cl  0  0  0  0  0  0  0  0  0  0  0  0
    1.3748   10.7191    8.9484 N   0  3  0  0  0  0  0  0  0  0  0  0
    2.2606   11.7405    9.4053 N   0  3  0  0  0  0  0  0  0  0  0  0
    3.0226   11.6436   10.9619 Cl  0  0  0  0  0  0  0  0  0  0  0  0
    2.7743   12.7167    8.5632 C   0  0  0  0  0  0  0  0  0  0  0  0
    2.7302   12.6338    7.1481 C   0  0  0  0  0  0  0  0  0  0  0  0
    2.1128   11.4865    6.6723 C   0  0  0  0  0  0  0  0  0  0  0  0
    1.2960   10.6138    7.5659 C   0  0  0  0  0  0  0  0  0  0  0  0
    0.3290    9.8497    6.9146 N   0  0  0  0  0  0  0  0  0  0  0  0
    2.2408   11.2500    5.3621 N   0  0  0  0  0  0  0  0  0  0  0  0
    2.9319   12.0054    4.4750 N   0  3  0  0  0  0  0  0  0  0  0  0
    3.4074   13.2517    4.8161 C   0  0  0  0  0  0  0  0  0  0  0  0
    3.2467   13.5680    6.1894 N   0  3  0  0  0  0  0  0  0  0  0  0
    3.5169   14.8550    6.5893 N   0  0  0  0  0  0  0  0  0  0  0  0
    3.9174   15.8089    5.7069 N   0  3  0  0  0  0  0  0  0  0  0  0
    4.0234   17.2507    6.1377 C   0  0  0  0  0  0  0  0  0  0  0  0
    4.2000   15.4731    4.4398 C   0  0  0  0  0  0  0  0  0  0  0  0
    3.9699   14.2147    4.0018 N   0  3  0  0  0  0  0  0  0  0  0  0
    4.4283   13.9538    2.3685 Cl  0  0  0  0  0  0  0  0  0  0  0  0
    3.0684   11.2790    2.9313 Cl  0  0  0  0  0  0  0  0  0  0  0  0
    7.2608   -3.3599   -1.0242 Cl  0  0  0  0  0  0  0  0  0  0  0  0
  1  2  1  0  0  0  0
  2  3  1  0  0  0  0
  2 11  1  0  0  0  0
  3  4  1  0  0  0  0
  4  5  1  0  0  0  0
  4  9  1  0  0  0  0
  5  6  1  0  0  0  0
  6  7  1  0  0  0  0
  7  8  1  0  0  0  0
  7 93  1  0  0  0  0
  8  9  2  0  0  0  0
  8 17  1  0  0  0  0
  9 10  1  0  0  0  0
 10 11  1  0  0  0  0
 10 15  2  0  0  0  0
 11 12  1  0  0  0  0
 12 13  1  0  0  0  0
 12 36  1  0  0  0  0
 13 14  1  0  0  0  0
 14 15  1  0  0  0  0
 15 16  1  0  0  0  0
 16 17  2  0  0  0  0
 17 18  1  0  0  0  0
 18 19  2  0  0  0  0
 18 31  1  0  0  0  0
 19 20  1  0  0  0  0
 20 21  1  0  0  0  0
 20 29  2  0  0  0  0
 21 22  1  0  0  0  0
 21 26  1  0  0  0  0
 22 23  1  0  0  0  0
 23 24  1  0  0  0  0
 24 25  1  0  0  0  0
 24 35  1  0  0  0  0
 25 26  1  0  0  0  0
 25 34  1  0  0  0  0
 26 27  1  0  0  0  0
 27 28  1  0  0  0  0
 28 29  1  0  0  0  0
 28 33  1  0  0  0  0
 29 30  1  0  0  0  0
 30 31  2  0  0  0  0
 31 32  1  0  0  0  0
 36 37  1  0  0  0  0
 36 41  1  0  0  0  0
 37 38  1  0  0  0  0
 38 39  2  0  0  0  0
 38 53  1  0  0  0  0
 39 40  1  0  0  0  0
 39 50  1  0  0  0  0
 40 41  1  0  0  0  0
 40 49  1  0  0  0  0
 41 42  1  0  0  0  0
 42 43  1  0  0  0  0
 43 44  2  0  0  0  0
 43 48  1  0  0  0  0
 44 45  1  0  0  0  0
 45 46  2  0  0  0  0
 46 47  1  0  0  0  0
 47 48  2  0  0  0  0
 50 51  2  0  0  0  0
 51 52  1  0  0  0  0
 51 59  1  0  0  0  0
 52 53  2  0  0  0  0
 52 55  1  0  0  0  0
 53 54  1  0  0  0  0
 55 56  1  0  0  0  0
 55 57  2  0  0  0  0
 57 58  1  0  0  0  0
 58 59  2  0  0  0  0
 58 61  1  0  0  0  0
 59 60  1  0  0  0  0
 61 62  2  0  0  0  0
 61 71  1  0  0  0  0
 62 63  1  0  0  0  0
 63 64  2  0  0  0  0
 63 69  1  0  0  0  0
 64 65  1  0  0  0  0
 64 74  1  0  0  0  0
 65 66  1  0  0  0  0
 65 67  2  0  0  0  0
 67 68  1  0  0  0  0
 68 69  2  0  0  0  0
 69 70  1  0  0  0  0
 70 71  2  0  0  0  0
 70 73  1  0  0  0  0
 71 72  1  0  0  0  0
 74 75  2  0  0  0  0
 74 80  1  0  0  0  0
 75 76  1  0  0  0  0
 75 77  1  0  0  0  0
 77 78  2  0  0  0  0
 78 79  1  0  0  0  0
 78 85  1  0  0  0  0
 79 80  2  0  0  0  0
 79 82  1  0  0  0  0
 80 81  1  0  0  0  0
 82 83  2  0  0  0  0
 83 84  1  0  0  0  0
 83 92  1  0  0  0  0
 84 85  2  0  0  0  0
 84 90  1  0  0  0  0
 85 86  1  0  0  0  0
 86 87  2  0  0  0  0
 87 88  1  0  0  0  0
 87 89  1  0  0  0  0
 89 90  2  0  0  0  0
 90 91  1  0  0  0  0
M  CHG  8  69   1  70   1  74   1  75   1  83   1  85   1  87   1  90   1
M  END
$$$$