
 OpenBabel11222001253D

 54 62  0  0  1  0  0  0  0  0999 V2000
   -0.5573   -2.8446   -1.0562 O   0  0  0  0  0  0  0  0  0  0  0  0
    0.3219   -3.1400   -0.0464 C   0  0  0  0  0  0  0  0  0  0  0  0
    1.5962   -3.4773   -0.2803 C   0  0  0  0  0  0  0  0  0  0  0  0
    2.0670   -3.5756   -1.5817 O   0  0  0  0  0  0  0  0  0  0  0  0
    3.4443   -3.8759   -1.7837 C   0  0  2  0  0  0  0  0  0  0  0  0
    3.7255   -5.2800   -1.6923 O   0  0  0  0  0  0  0  0  0  0  0  0
    3.5625   -6.1225   -2.7796 C   0  0  0  0  0  0  0  0  0  0  0  0
    3.2453   -7.4361   -2.6353 C   0  0  0  0  0  0  0  0  0  0  0  0
    3.2436   -8.2826   -3.7479 O   0  0  0  0  0  0  0  0  0  0  0  0
    3.3021   -7.8055   -5.0350 C   0  0  0  0  0  0  0  0  0  0  0  0
    3.5723   -6.5129   -5.2764 C   0  0  0  0  0  0  0  0  0  0  0  0
    3.8593   -5.5587   -4.1536 C   0  0  0  0  0  0  0  0  0  0  0  0
    3.5250   -5.9455   -6.6631 C   0  0  3  0  0  0  0  0  0  0  0  0
    4.7796   -5.3707   -6.9805 O   0  0  0  0  0  0  0  0  0  0  0  0
    4.8272   -4.7384   -8.1881 C   0  0  0  0  0  0  0  0  0  0  0  0
    5.6811   -3.9115   -8.4582 O   0  0  0  0  0  0  0  0  0  0  0  0
    3.8149   -5.0626   -9.0345 O   0  0  0  0  0  0  0  0  0  0  0  0
    3.3627   -6.4125   -9.0499 C   0  0  3  0  0  0  0  0  0  0  0  0
    3.2813   -6.9975   -7.6801 C   0  0  0  0  0  0  0  0  0  0  0  0
    3.0549   -8.2978   -7.3658 C   0  0  0  0  0  0  0  0  0  0  0  0
    3.0512   -8.7129   -6.0397 O   0  3  0  0  0  0  0  0  0  0  0  0
    2.8095   -9.3434   -8.3842 C   0  0  0  0  0  0  0  0  0  0  0  0
    3.7890   -9.6758   -9.3789 O   0  0  0  0  0  0  0  0  0  0  0  0
    3.4934  -10.6030   -8.3170 O   0  0  0  0  0  0  0  0  0  0  0  0
    2.0362   -6.4339   -9.5447 O   0  0  0  0  0  0  0  0  0  0  0  0
    2.8727   -8.1661   -1.3568 C   0  0  0  0  0  0  0  0  0  0  0  0
    2.7610   -7.4677   -0.1474 C   0  0  0  0  0  0  0  0  0  0  0  0
    2.3795   -8.0930    1.0239 C   0  0  0  0  0  0  0  0  0  0  0  0
    2.2747   -7.3686    2.1424 F   0  0  0  0  0  0  0  0  0  0  0  0
    2.1173   -9.4448    1.0499 C   0  0  0  0  0  0  0  0  0  0  0  0
    2.2399  -10.2113   -0.1208 C   0  0  0  0  0  0  0  0  0  0  0  0
    2.5806   -9.5589   -1.3421 C   0  0  0  0  0  0  0  0  0  0  0  0
    2.6053  -10.2677   -2.4845 N   0  0  0  0  0  0  0  0  0  0  0  0
    2.3104  -11.5837   -2.4713 C   0  0  0  0  0  0  0  0  0  0  0  0
    2.3280  -12.2299   -3.7900 C   0  0  0  0  0  0  0  0  0  0  0  0
    2.5349  -11.5950   -4.8237 O   0  0  0  0  0  0  0  0  0  0  0  0
    2.0740  -13.7253   -3.7516 C   0  0  0  0  0  0  0  0  0  0  0  0
    2.5589  -14.4492   -4.6072 O   0  0  0  0  0  0  0  0  0  0  0  0
    1.2516  -14.1962   -2.5602 C   0  0  1  0  0  0  0  0  0  0  0  0
    1.7231  -13.6410   -1.3209 O   0  0  0  0  0  0  0  0  0  0  0  0
    2.0052  -12.3036   -1.3408 C   0  0  0  0  0  0  0  0  0  0  0  0
    2.0312  -11.6191   -0.1228 C   0  0  0  0  0  0  0  0  0  0  0  0
    1.6413  -12.3136    1.0468 N   0  0  0  0  0  0  0  0  0  0  0  0
   -0.2380  -13.9990   -2.6768 C   0  0  1  0  0  0  0  0  0  0  0  0
   -1.0341  -14.4305   -1.5565 O   0  0  0  0  0  0  0  0  0  0  0  0
   -0.6806  -12.7855   -3.2799 O   0  0  0  0  0  0  0  0  0  0  0  0
   -0.9069  -13.9308   -3.9737 C   0  0  0  0  0  0  0  0  0  0  0  0
   -0.5377  -14.2144   -5.0833 O   0  0  0  0  0  0  0  0  0  0  0  0
    4.3287   -3.1715   -0.7821 C   0  0  0  0  0  0  0  0  0  0  0  0
    5.2220   -2.3853   -1.0520 O   0  0  0  0  0  0  0  0  0  0  0  0
    3.9385   -3.4892    0.6300 C   0  0  0  0  0  0  0  0  0  0  0  0
    4.7890   -3.6423    1.4885 O   0  0  0  0  0  0  0  0  0  0  0  0
    2.4644   -3.6560    0.9197 C   0  0  0  0  0  0  0  0  0  0  0  0
    2.0471   -3.8990    2.0390 O   0  0  0  0  0  0  0  0  0  0  0  0
  1  2  1  0  0  0  0
  2  3  2  0  0  0  0
  3  4  1  0  0  0  0
  3 53  1  0  0  0  0
  4  5  1  0  0  0  0
  5  6  1  1  0  0  0
  5 49  1  0  0  0  0
  6  7  1  0  0  0  0
  7  8  2  0  0  0  0
  7 12  1  0  0  0  0
  8  9  1  0  0  0  0
  8 26  1  0  0  0  0
  9 10  1  0  0  0  0
 10 11  2  0  0  0  0
 10 21  1  0  0  0  0
 11 12  1  0  0  0  0
 11 13  1  0  0  0  0
 13 14  1  0  0  0  0
 13 19  1  0  0  0  0
 14 15  1  0  0  0  0
 15 16  2  0  0  0  0
 15 17  1  0  0  0  0
 17 18  1  0  0  0  0
 18 19  1  0  0  0  0
 18 25  1  0  0  0  0
 19 20  2  0  0  0  0
 20 21  1  0  0  0  0
 20 22  1  0  0  0  0
 22 23  1  0  0  0  0
 22 24  1  0  0  0  0
 23 24  1  0  0  0  0
 26 27  2  0  0  0  0
 26 32  1  0  0  0  0
 27 28  1  0  0  0  0
 28 29  1  0  0  0  0
 28 30  2  0  0  0  0
 30 31  1  0  0  0  0
 31 32  2  0  0  0  0
 31 42  1  0  0  0  0
 32 33  1  0  0  0  0
 33 34  2  0  0  0  0
 34 35  1  0  0  0  0
 34 41  1  0  0  0  0
 35 36  2  0  0  0  0
 35 37  1  0  0  0  0
 37 38  2  0  0  0  0
 39 37  1  6  0  0  0
 39 40  1  0  0  0  0
 39 44  1  0  0  0  0
 40 41  1  0  0  0  0
 41 42  2  0  0  0  0
 42 43  1  0  0  0  0
 44 45  1  1  0  0  0
 44 46  1  0  0  0  0
 44 47  1  0  0  0  0
 46 47  1  0  0  0  0
 47 48  2  0  0  0  0
 49 50  2  0  0  0  0
 49 51  1  0  0  0  0
 51 52  2  0  0  0  0
 51 53  1  0  0  0  0
 53 54  2  0  0  0  0
M  CHG  1  21   1
M  END
$$$$