
 OpenBabel11272019163D

 54 62  0  0  1  0  0  0  0  0999 V2000
    2.5547    6.9532   -4.3343 F   0  0  0  0  0  0  0  0  0  0  0  0
    2.2079    5.7014   -4.6882 C   0  0  0  0  0  0  0  0  0  0  0  0
    2.1268    4.7220   -3.7864 C   0  0  0  0  0  0  0  0  0  0  0  0
    2.4278    4.9437   -2.4500 O   0  0  0  0  0  0  0  0  0  0  0  0
    1.5985    4.2158   -1.5398 C   0  0  2  0  0  0  0  0  0  0  0  0
    2.0012    4.4432   -0.1735 O   0  0  0  0  0  0  0  0  0  0  0  0
    2.0538    5.7462    0.3004 C   0  0  0  0  0  0  0  0  0  0  0  0
    2.9452    6.1007    1.2511 C   0  0  0  0  0  0  0  0  0  0  0  0
    3.0322    7.3886    1.7769 O   0  0  0  0  0  0  0  0  0  0  0  0
    2.1999    8.3897    1.2874 C   0  0  0  0  0  0  0  0  0  0  0  0
    1.2371    8.1215    0.3831 C   0  0  0  0  0  0  0  0  0  0  0  0
    1.0238    6.7377   -0.1733 C   0  0  0  0  0  0  0  0  0  0  0  0
    0.3532    9.2027   -0.1729 C   0  0  3  0  0  0  0  0  0  0  0  0
   -0.9884    8.9067    0.1460 O   0  0  0  0  0  0  0  0  0  0  0  0
   -1.9166    9.8161   -0.2705 C   0  0  0  0  0  0  0  0  0  0  0  0
   -3.0906    9.4974   -0.3953 O   0  0  0  0  0  0  0  0  0  0  0  0
   -1.4740   11.0727   -0.5300 O   0  0  0  0  0  0  0  0  0  0  0  0
   -0.2775   11.5130   -0.1039 C   0  0  0  0  0  0  0  0  0  0  0  0
    0.0765   12.6779   -0.2035 O   0  0  0  0  0  0  0  0  0  0  0  0
    0.6374   10.5105    0.4365 C   0  0  0  0  0  0  0  0  0  0  0  0
    1.6157   10.7334    1.3419 C   0  0  0  0  0  0  0  0  0  0  0  0
    2.4056    9.6663    1.7637 O   0  3  0  0  0  0  0  0  0  0  0  0
    1.9462   12.0440    1.9698 C   0  0  0  0  0  0  0  0  0  0  0  0
    2.5197   12.0835    3.2905 O   0  0  0  0  0  0  0  0  0  0  0  0
    3.3191   12.4333    2.1466 O   0  0  0  0  0  0  0  0  0  0  0  0
    3.8717    5.1361    1.8825 C   0  0  0  0  0  0  0  0  0  0  0  0
    3.4207    4.4791    3.0279 C   0  0  0  0  0  0  0  0  0  0  0  0
    4.2639    3.5807    3.6409 C   0  0  0  0  0  0  0  0  0  0  0  0
    3.8402    2.9658    4.7524 F   0  0  0  0  0  0  0  0  0  0  0  0
    5.5013    3.2970    3.2036 N   0  0  0  0  0  0  0  0  0  0  0  0
    5.9494    3.8963    2.0873 C   0  0  0  0  0  0  0  0  0  0  0  0
    5.1680    4.8473    1.3845 C   0  0  0  0  0  0  0  0  0  0  0  0
    5.7123    5.4553    0.2294 C   0  0  0  0  0  0  0  0  0  0  0  0
    6.9889    5.1053   -0.2295 C   0  0  0  0  0  0  0  0  0  0  0  0
    7.5307    5.7427   -1.4312 C   0  0  0  0  0  0  0  0  0  0  0  0
    6.9096    6.6106   -2.0243 O   0  0  0  0  0  0  0  0  0  0  0  0
    8.9012    5.2903   -1.8743 C   0  0  0  0  0  0  0  0  0  0  0  0
    9.5986    6.0201   -2.5614 O   0  0  0  0  0  0  0  0  0  0  0  0
    9.2893    3.9146   -1.3834 C   0  0  1  0  0  0  0  0  0  0  0  0
    8.9623    3.7031    0.0012 O   0  0  0  0  0  0  0  0  0  0  0  0
    7.7410    4.1521    0.4315 C   0  0  0  0  0  0  0  0  0  0  0  0
    7.2194    3.5799    1.5931 C   0  0  0  0  0  0  0  0  0  0  0  0
    7.9657    2.6702    2.2423 F   0  0  0  0  0  0  0  0  0  0  0  0
    8.7887    2.8211   -2.2943 C   0  0  1  0  0  0  0  0  0  0  0  0
    9.2575    2.8644   -3.6558 O   0  0  0  0  0  0  0  0  0  0  0  0
    8.7207    1.5035   -1.7180 O   0  0  0  0  0  0  0  0  0  0  0  0
    7.5644    2.0729   -2.0753 C   0  0  0  0  0  0  0  0  0  0  0  0
    6.5455    2.3434   -1.4803 O   0  0  0  0  0  0  0  0  0  0  0  0
    1.6018    2.7041   -1.7738 C   0  0  0  0  0  0  0  0  0  0  0  0
    1.2427    1.8608   -0.9655 O   0  0  0  0  0  0  0  0  0  0  0  0
    1.9736    2.3255   -3.1885 C   0  0  0  0  0  0  0  0  0  0  0  0
    2.5001    1.2579   -3.4480 O   0  0  0  0  0  0  0  0  0  0  0  0
    1.7558    3.3679   -4.2606 C   0  0  0  0  0  0  0  0  0  0  0  0
    1.2741    3.1081   -5.3454 O   0  0  0  0  0  0  0  0  0  0  0  0
  1  2  1  0  0  0  0
  2  3  2  0  0  0  0
  3  4  1  0  0  0  0
  3 53  1  0  0  0  0
  4  5  1  0  0  0  0
  5  6  1  1  0  0  0
  5 49  1  0  0  0  0
  6  7  1  0  0  0  0
  7  8  2  0  0  0  0
  7 12  1  0  0  0  0
  8  9  1  0  0  0  0
  8 26  1  0  0  0  0
  9 10  1  0  0  0  0
 10 11  2  0  0  0  0
 10 22  1  0  0  0  0
 11 12  1  0  0  0  0
 11 13  1  0  0  0  0
 13 14  1  0  0  0  0
 13 20  1  0  0  0  0
 14 15  1  0  0  0  0
 15 16  2  0  0  0  0
 15 17  1  0  0  0  0
 17 18  1  0  0  0  0
 18 19  2  0  0  0  0
 18 20  1  0  0  0  0
 20 21  2  0  0  0  0
 21 22  1  0  0  0  0
 21 23  1  0  0  0  0
 23 24  1  0  0  0  0
 23 25  1  0  0  0  0
 24 25  1  0  0  0  0
 26 27  2  0  0  0  0
 26 32  1  0  0  0  0
 27 28  1  0  0  0  0
 28 29  1  0  0  0  0
 28 30  2  0  0  0  0
 30 31  1  0  0  0  0
 31 32  2  0  0  0  0
 31 42  1  0  0  0  0
 32 33  1  0  0  0  0
 33 34  2  0  0  0  0
 34 35  1  0  0  0  0
 34 41  1  0  0  0  0
 35 36  2  0  0  0  0
 35 37  1  0  0  0  0
 37 38  2  0  0  0  0
 39 37  1  6  0  0  0
 39 40  1  0  0  0  0
 39 44  1  0  0  0  0
 40 41  1  0  0  0  0
 41 42  2  0  0  0  0
 42 43  1  0  0  0  0
 44 45  1  6  0  0  0
 44 46  1  0  0  0  0
 44 47  1  0  0  0  0
 46 47  1  0  0  0  0
 47 48  2  0  0  0  0
 49 50  2  0  0  0  0
 49 51  1  0  0  0  0
 51 52  2  0  0  0  0
 51 53  1  0  0  0  0
 53 54  2  0  0  0  0
M  CHG  1  22   1
M  END
$$$$