
 OpenBabel10262010473D

 52 60  0  0  1  0  0  0  0  0999 V2000
    1.3789    0.3262   -0.2578 O   0  0  0  0  0  0  0  0  0  0  0  0
    2.5990    0.2321   -0.2244 C   0  0  0  0  0  0  0  0  0  0  0  0
    3.1713   -1.0201   -0.1827 N   0  0  0  0  0  0  0  0  0  0  0  0
    4.4435   -1.1168    0.0116 C   0  0  0  0  0  0  0  0  0  0  0  0
    5.3283    0.0480    0.1649 C   0  0  0  0  0  0  0  0  0  0  0  0
    4.6170    1.3309   -0.0513 C   0  0  0  0  0  0  0  0  0  0  0  0
    3.3394    1.3947   -0.2372 N   0  0  0  0  0  0  0  0  0  0  0  0
    5.4199    2.5838   -0.0400 C   0  0  0  0  0  0  0  0  0  0  0  0
    4.7107    3.8691   -0.2710 C   0  0  0  0  0  0  0  0  0  0  0  0
    5.6203    5.0744   -0.1909 C   0  0  0  0  0  0  0  0  0  0  0  0
    6.9339    4.9077    0.0900 C   0  0  0  0  0  0  0  0  0  0  0  0
    7.5043    3.6606    0.3569 O   0  0  0  0  0  0  0  0  0  0  0  0
    6.7224    2.5162    0.2641 C   0  0  0  0  0  0  0  0  0  0  0  0
    7.3409    1.3109    0.5137 N   0  0  0  0  0  0  0  0  0  0  0  0
    6.6435    0.0997    0.4569 C   0  0  0  0  0  0  0  0  0  0  0  0
    7.4169   -1.1583    0.7082 C   0  0  0  0  0  0  0  0  0  0  0  0
    6.9339   -2.2259    1.0355 O   0  0  0  0  0  0  0  0  0  0  0  0
    8.7467   -0.9683    0.5543 O   0  0  0  0  0  0  0  0  0  0  0  0
    7.9014    6.0234    0.1724 C   0  0  0  0  0  0  0  0  0  0  0  0
    8.0280    6.5536    1.4089 N   0  0  0  0  0  0  0  0  0  0  0  0
    8.8921    7.5662    1.5280 C   0  0  0  0  0  0  0  0  0  0  0  0
    9.6302    8.0958    0.5438 N   0  0  0  0  0  0  0  0  0  0  0  0
    9.5088    7.5514   -0.6688 C   0  0  0  0  0  0  0  0  0  0  0  0
    8.6512    6.4699   -0.9325 C   0  0  0  0  0  0  0  0  0  0  0  0
    8.6139    5.9242   -2.2396 C   0  0  0  0  0  0  0  0  0  0  0  0
    9.4048    6.4695   -3.2551 C   0  0  0  0  0  0  0  0  0  0  0  0
   10.2530    7.5379   -2.9914 C   0  0  0  0  0  0  0  0  0  0  0  0
   10.2813    8.0742   -1.7031 C   0  0  0  0  0  0  0  0  0  0  0  0
   11.0969    8.1118   -3.9056 O   0  0  0  0  0  0  0  0  0  0  0  0
   11.3434    7.3698   -5.1112 C   0  0  2  0  0  0  0  0  0  0  0  0
   10.1135    6.6892   -5.6566 C   0  0  0  0  0  0  0  0  0  0  0  0
    9.7305    6.7477   -6.8152 O   0  0  0  0  0  0  0  0  0  0  0  0
    9.3520    5.9131   -4.6121 C   0  0  0  0  0  0  0  0  0  0  0  0
    8.7458    4.8913   -4.8853 O   0  0  0  0  0  0  0  0  0  0  0  0
   12.4630    6.3960   -4.9110 C   0  0  1  0  0  0  0  0  0  0  0  0
   12.2780    5.3870   -3.8873 O   0  0  0  0  0  0  0  0  0  0  0  0
   13.0884    5.9470   -6.1143 O   0  0  0  0  0  0  0  0  0  0  0  0
   13.8508    6.6759   -5.2759 C   0  0  0  0  0  0  0  0  0  0  0  0
   14.8768    6.3822   -4.7064 O   0  0  0  0  0  0  0  0  0  0  0  0
    5.0947    6.3281   -0.4858 O   0  0  0  0  0  0  0  0  0  0  0  0
    3.7267    6.5781   -0.1458 C   0  0  1  0  0  0  0  0  0  0  0  0
    3.6487    7.7009    0.7364 O   0  0  0  0  0  0  0  0  0  0  0  0
    2.3533    7.9253    1.3117 C   0  0  3  0  0  0  0  0  0  0  0  0
    2.1636    7.2149    2.6216 C   0  0  0  0  0  0  0  0  0  0  0  0
    2.3184    5.7958    2.6011 O   0  0  0  0  0  0  0  0  0  0  0  0
    3.3300    6.6350    3.2066 O   0  0  0  0  0  0  0  0  0  0  0  0
    1.1964    7.6898    0.3575 C   0  0  0  0  0  0  0  0  0  0  0  0
    0.0280    7.5387    0.6757 O   0  0  0  0  0  0  0  0  0  0  0  0
    1.6300    7.6117   -1.0830 C   0  0  0  0  0  0  0  0  0  0  0  0
    0.9860    8.1759   -1.9507 O   0  0  0  0  0  0  0  0  0  0  0  0
    2.8924    6.8450   -1.3980 C   0  0  0  0  0  0  0  0  0  0  0  0
    3.1209    6.4359   -2.5255 O   0  0  0  0  0  0  0  0  0  0  0  0
  1  2  2  0  0  0  0
  2  3  1  0  0  0  0
  2  7  1  0  0  0  0
  3  4  2  0  0  0  0
  4  5  1  0  0  0  0
  5  6  1  0  0  0  0
  5 15  2  0  0  0  0
  6  7  2  0  0  0  0
  6  8  1  0  0  0  0
  8  9  1  0  0  0  0
  8 13  2  0  0  0  0
  9 10  1  0  0  0  0
 10 11  2  0  0  0  0
 10 40  1  0  0  0  0
 11 12  1  0  0  0  0
 11 19  1  0  0  0  0
 12 13  1  0  0  0  0
 13 14  1  0  0  0  0
 14 15  1  0  0  0  0
 15 16  1  0  0  0  0
 16 17  2  0  0  0  0
 16 18  1  0  0  0  0
 19 20  2  0  0  0  0
 19 24  1  0  0  0  0
 20 21  1  0  0  0  0
 21 22  2  0  0  0  0
 22 23  1  0  0  0  0
 23 24  2  0  0  0  0
 23 28  1  0  0  0  0
 24 25  1  0  0  0  0
 25 26  2  0  0  0  0
 26 27  1  0  0  0  0
 26 33  1  0  0  0  0
 27 28  2  0  0  0  0
 27 29  1  0  0  0  0
 30 29  1  1  0  0  0
 30 31  1  0  0  0  0
 30 35  1  0  0  0  0
 31 32  2  0  0  0  0
 31 33  1  0  0  0  0
 33 34  2  0  0  0  0
 35 36  1  1  0  0  0
 35 37  1  0  0  0  0
 35 38  1  0  0  0  0
 37 38  1  0  0  0  0
 38 39  2  0  0  0  0
 41 40  1  6  0  0  0
 41 42  1  0  0  0  0
 41 51  1  0  0  0  0
 42 43  1  0  0  0  0
 43 44  1  0  0  0  0
 43 47  1  0  0  0  0
 44 45  1  0  0  0  0
 44 46  1  0  0  0  0
 45 46  1  0  0  0  0
 47 48  2  0  0  0  0
 47 49  1  0  0  0  0
 49 50  2  0  0  0  0
 49 51  1  0  0  0  0
 51 52  2  0  0  0  0
M  END
$$$$