
 OpenBabel11212022163D

 54 62  0  0  1  0  0  0  0  0999 V2000
    4.1151   -5.9022   -0.5513 O   0  0  0  0  0  0  0  0  0  0  0  0
    3.7555   -5.2380   -1.5190 C   0  0  0  0  0  0  0  0  0  0  0  0
    3.2587   -3.8044   -1.3955 C   0  0  3  0  0  0  0  0  0  0  0  0
    2.9628   -3.4494   -0.0454 O   0  0  0  0  0  0  0  0  0  0  0  0
    4.0856   -3.0118    0.7159 C   0  0  2  0  0  0  0  0  0  0  0  0
    3.7152   -2.7494    2.0811 O   0  0  0  0  0  0  0  0  0  0  0  0
    3.3371   -3.8191    2.8738 C   0  0  0  0  0  0  0  0  0  0  0  0
    2.4734   -3.6350    3.8914 C   0  0  0  0  0  0  0  0  0  0  0  0
    2.0758   -4.6566    4.7508 O   0  0  0  0  0  0  0  0  0  0  0  0
    2.6691   -5.9188    4.6341 C   0  0  0  0  0  0  0  0  0  0  0  0
    3.5871   -6.1778    3.6838 C   0  0  0  0  0  0  0  0  0  0  0  0
    3.9620   -5.1668    2.6385 C   0  0  0  0  0  0  0  0  0  0  0  0
    4.2807   -7.5110    3.5836 C   0  0  3  0  0  0  0  0  0  0  0  0
    5.6486   -7.2935    3.8913 O   0  0  0  0  0  0  0  0  0  0  0  0
    6.4652   -8.3820    3.9270 C   0  0  0  0  0  0  0  0  0  0  0  0
    7.6785   -8.2710    3.9509 O   0  0  0  0  0  0  0  0  0  0  0  0
    5.8379   -9.5853    3.9311 O   0  0  0  0  0  0  0  0  0  0  0  0
    4.5290   -9.7521    4.4635 C   0  0  3  0  0  0  0  0  0  0  0  0
    3.7920   -8.4679    4.6037 C   0  0  0  0  0  0  0  0  0  0  0  0
    2.8412   -8.1572    5.5128 C   0  0  0  0  0  0  0  0  0  0  0  0
    2.2860   -6.8856    5.5335 O   0  3  0  0  0  0  0  0  0  0  0  0
    2.3250   -9.0854    6.5501 C   0  0  0  0  0  0  0  0  0  0  0  0
    2.4635   -8.7674    7.9427 O   0  0  0  0  0  0  0  0  0  0  0  0
    1.1639   -8.7263    7.3250 O   0  0  0  0  0  0  0  0  0  0  0  0
    3.7580  -10.5132    3.5551 O   0  0  0  0  0  0  0  0  0  0  0  0
    1.8860   -2.3068    4.1657 C   0  0  0  0  0  0  0  0  0  0  0  0
    2.5640   -1.4426    5.0212 C   0  0  0  0  0  0  0  0  0  0  0  0
    2.1027   -0.2072    5.2481 N   0  3  0  0  0  0  0  0  0  0  0  0
    2.7687    0.5966    6.1001 F   0  0  0  0  0  0  0  0  0  0  0  0
    1.0111    0.2598    4.6709 N   0  0  0  0  0  0  0  0  0  0  0  0
    0.3303   -0.5088    3.8140 C   0  0  0  0  0  0  0  0  0  0  0  0
    0.7228   -1.8294    3.5290 C   0  0  0  0  0  0  0  0  0  0  0  0
   -0.0573   -2.5896    2.6261 C   0  0  0  0  0  0  0  0  0  0  0  0
   -1.1927   -2.0415    2.0121 C   0  0  0  0  0  0  0  0  0  0  0  0
   -2.0234   -2.8697    1.1322 C   0  0  0  0  0  0  0  0  0  0  0  0
   -1.7617   -4.0503    0.9664 O   0  0  0  0  0  0  0  0  0  0  0  0
   -3.2230   -2.2006    0.4985 C   0  0  0  0  0  0  0  0  0  0  0  0
   -4.1394   -2.8662    0.0436 O   0  0  0  0  0  0  0  0  0  0  0  0
   -3.1454   -0.6910    0.4706 C   0  0  1  0  0  0  0  0  0  0  0  0
   -2.6242   -0.1079    1.6768 O   0  0  0  0  0  0  0  0  0  0  0  0
   -1.5561   -0.7303    2.2572 C   0  0  0  0  0  0  0  0  0  0  0  0
   -0.7984    0.0062    3.1714 C   0  0  0  0  0  0  0  0  0  0  0  0
   -1.1631    1.2704    3.4390 F   0  0  0  0  0  0  0  0  0  0  0  0
   -2.3664   -0.2192   -0.7140 C   0  0  1  0  0  0  0  0  0  0  0  0
   -0.9700   -0.6238   -0.7827 O   0  0  0  0  0  0  0  0  0  0  0  0
   -3.0716   -0.2253   -1.9470 O   0  0  0  0  0  0  0  0  0  0  0  0
   -2.7005    0.9836   -1.4796 C   0  0  0  0  0  0  0  0  0  0  0  0
   -1.9303    1.7956   -1.9537 O   0  0  0  0  0  0  0  0  0  0  0  0
    4.5232   -1.6911    0.1188 C   0  0  0  0  0  0  0  0  0  0  0  0
    4.5294   -0.6097    0.6876 O   0  0  0  0  0  0  0  0  0  0  0  0
    4.8962   -1.8408   -1.3300 C   0  0  0  0  0  0  0  0  0  0  0  0
    5.8049   -1.1730   -1.7908 O   0  0  0  0  0  0  0  0  0  0  0  0
    4.1876   -2.8857   -2.1667 C   0  0  0  0  0  0  0  0  0  0  0  0
    4.4208   -3.0161   -3.3577 O   0  0  0  0  0  0  0  0  0  0  0  0
  1  2  2  0  0  0  0
  2  3  1  0  0  0  0
  3  4  1  0  0  0  0
  3 53  1  0  0  0  0
  4  5  1  0  0  0  0
  5  6  1  1  0  0  0
  5 49  1  0  0  0  0
  6  7  1  0  0  0  0
  7  8  2  0  0  0  0
  7 12  1  0  0  0  0
  8  9  1  0  0  0  0
  8 26  1  0  0  0  0
  9 10  1  0  0  0  0
 10 11  2  0  0  0  0
 10 21  1  0  0  0  0
 11 12  1  0  0  0  0
 11 13  1  0  0  0  0
 13 14  1  0  0  0  0
 13 19  1  0  0  0  0
 14 15  1  0  0  0  0
 15 16  2  0  0  0  0
 15 17  1  0  0  0  0
 17 18  1  0  0  0  0
 18 19  1  0  0  0  0
 18 25  1  0  0  0  0
 19 20  2  0  0  0  0
 20 21  1  0  0  0  0
 20 22  1  0  0  0  0
 22 23  1  0  0  0  0
 22 24  1  0  0  0  0
 23 24  1  0  0  0  0
 26 27  2  0  0  0  0
 26 32  1  0  0  0  0
 27 28  1  0  0  0  0
 28 29  1  0  0  0  0
 28 30  2  0  0  0  0
 30 31  1  0  0  0  0
 31 32  2  0  0  0  0
 31 42  1  0  0  0  0
 32 33  1  0  0  0  0
 33 34  2  0  0  0  0
 34 35  1  0  0  0  0
 34 41  1  0  0  0  0
 35 36  2  0  0  0  0
 35 37  1  0  0  0  0
 37 38  2  0  0  0  0
 39 37  1  1  0  0  0
 39 40  1  0  0  0  0
 39 44  1  0  0  0  0
 40 41  1  0  0  0  0
 41 42  2  0  0  0  0
 42 43  1  0  0  0  0
 44 45  1  6  0  0  0
 44 46  1  0  0  0  0
 44 47  1  0  0  0  0
 46 47  1  0  0  0  0
 47 48  2  0  0  0  0
 49 50  2  0  0  0  0
 49 51  1  0  0  0  0
 51 52  2  0  0  0  0
 51 53  1  0  0  0  0
 53 54  2  0  0  0  0
M  CHG  2  21   1  28   1
M  END
$$$$