
 OpenBabel12082009103D

 54 61  0  0  1  0  0  0  0  0999 V2000
    3.2049    1.0290   -3.0240 O   0  0  0  0  0  0  0  0  0  0  0  0
    2.7638    0.7499   -4.3537 C   0  0  1  0  0  0  0  0  0  0  0  0
    2.8692   -0.7417   -4.6308 C   0  0  2  0  0  0  0  0  0  0  0  0
    2.6807   -0.9480   -6.0421 O   0  0  0  0  0  0  0  0  0  0  0  0
    1.8187   -1.5184   -3.7677 C   0  0  2  0  0  0  0  0  0  0  0  0
    2.1484   -1.4884   -2.3916 O   0  0  0  0  0  0  0  0  0  0  0  0
    1.9156   -2.8781   -4.2232 O   0  0  0  0  0  0  0  0  0  0  0  0
    1.0487   -3.7600   -3.5072 C   0  0  0  0  0  0  0  0  0  0  0  0
    1.2253   -5.1747   -4.0448 C   0  0  0  0  0  0  0  0  0  0  0  0
    2.6589   -5.6704   -3.8330 C   0  0  0  0  0  0  0  0  0  0  0  0
    2.8855   -7.0425   -4.4209 C   0  0  0  0  0  0  0  0  0  0  0  0
    3.8036   -7.2051   -5.4719 C   0  0  0  0  0  0  0  0  0  0  0  0
    4.0247   -8.4489   -6.0772 C   0  0  0  0  0  0  0  0  0  0  0  0
    4.9481   -8.4668   -7.1060 O   0  0  0  0  0  0  0  0  0  0  0  0
    4.8750   -9.5334   -8.0309 C   0  0  0  0  0  0  0  0  0  0  0  0
    5.4853  -10.7032   -7.5870 O   0  0  0  0  0  0  0  0  0  0  0  0
    3.6021   -9.8625   -8.5024 O   0  0  0  0  0  0  0  0  0  0  0  0
    5.6023   -9.2147   -9.1855 O   0  0  0  0  0  0  0  0  0  0  0  0
    3.3082   -9.5240   -5.5443 C   0  0  0  0  0  0  0  0  0  0  0  0
    2.4082   -9.4209   -4.4915 C   0  0  0  0  0  0  0  0  0  0  0  0
    2.1833   -8.1556   -3.9191 C   0  0  0  0  0  0  0  0  0  0  0  0
    1.9172  -10.7381   -4.2616 C   0  0  0  0  0  0  0  0  0  0  0  0
    2.5556  -11.5697   -5.1681 C   0  0  0  0  0  0  0  0  0  0  0  0
    3.3712  -10.8178   -5.9555 O   0  0  0  0  0  0  0  0  0  0  0  0
    2.4883  -12.9979   -5.4857 C   0  0  0  0  0  0  0  0  0  0  0  0
    1.2924  -13.6627   -5.2380 C   0  0  0  0  0  0  0  0  0  0  0  0
    1.0842  -14.9911   -5.5924 C   0  0  0  0  0  0  0  0  0  0  0  0
   -0.0977  -15.5948   -5.1774 C   0  0  0  0  0  0  0  0  0  0  0  0
   -0.4017  -16.9010   -5.5159 C   0  0  0  0  0  0  0  0  0  0  0  0
    0.4061  -17.5842   -6.4245 C   0  0  0  0  0  0  0  0  0  0  0  0
    1.5801  -16.9715   -6.9252 C   0  0  0  0  0  0  0  0  0  0  0  0
    2.0516  -15.7076   -6.3503 C   0  0  0  0  0  0  0  0  0  0  0  0
    3.3823  -15.0996   -6.4186 C   0  0  0  0  0  0  0  0  0  0  0  0
    3.5876  -13.7575   -5.9913 C   0  0  0  0  0  0  0  0  0  0  0  0
    4.8974  -13.2130   -6.0178 C   0  0  0  0  0  0  0  0  0  0  0  0
    6.0114  -13.8992   -6.4957 C   0  0  0  0  0  0  0  0  0  0  0  0
    5.8555  -15.2077   -6.8476 C   0  0  0  0  0  0  0  0  0  0  0  0
    4.5776  -15.7928   -6.7929 C   0  0  0  0  0  0  0  0  0  0  0  0
    4.5958  -17.1555   -6.9776 O   0  0  0  0  0  0  0  0  0  0  0  0
    4.3988  -17.4248   -8.3643 C   0  0  0  0  0  0  0  0  0  0  0  0
    3.1049  -17.0422   -8.8213 O   0  0  0  0  0  0  0  0  0  0  0  0
    2.1619  -17.6609   -8.0327 C   0  0  0  0  0  0  0  0  0  0  0  0
    1.7068  -18.9011   -8.5013 C   0  0  0  0  0  0  0  0  0  0  0  0
    0.6446  -19.5228   -7.8792 C   0  0  0  0  0  0  0  0  0  0  0  0
   -0.0176  -18.8553   -6.8532 C   0  0  0  0  0  0  0  0  0  0  0  0
    0.4937   -1.0482   -3.9950 O   0  0  0  0  0  0  0  0  0  0  0  0
    0.2806    0.3514   -3.8120 C   0  0  1  0  0  0  0  0  0  0  0  0
    1.3254    1.2147   -4.5786 C   0  0  1  0  0  0  0  0  0  0  0  0
    1.2518    2.6200   -4.3053 O   0  0  0  0  0  0  0  0  0  0  0  0
   -0.9877    0.6011   -4.4794 O   0  0  0  0  0  0  0  0  0  0  0  0
    0.0407    0.7714   -2.2871 C   0  0  0  0  0  0  0  0  0  0  0  0
   -0.2235    2.1467   -2.1407 O   0  0  0  0  0  0  0  0  0  0  0  0
   -1.0906    0.1258   -1.7459 O   0  0  0  0  0  0  0  0  0  0  0  0
    1.0796    0.5191   -1.3881 O   0  0  0  0  0  0  0  0  0  0  0  0
  2  1  1  1  0  0  0
  2  3  1  0  0  0  0
  2 48  1  0  0  0  0
  3  5  1  0  0  0  0
  3  4  1  6  0  0  0
  5  6  1  1  0  0  0
  5  7  1  0  0  0  0
  5 46  1  0  0  0  0
  7  8  1  0  0  0  0
  8  9  1  0  0  0  0
  9 10  1  0  0  0  0
 10 11  1  0  0  0  0
 11 12  2  0  0  0  0
 11 21  1  0  0  0  0
 12 13  1  0  0  0  0
 13 14  1  0  0  0  0
 13 19  2  0  0  0  0
 14 15  1  0  0  0  0
 15 16  1  0  0  0  0
 15 17  1  0  0  0  0
 15 18  1  0  0  0  0
 19 20  1  0  0  0  0
 19 24  1  0  0  0  0
 20 21  2  0  0  0  0
 20 22  1  0  0  0  0
 22 23  2  0  0  0  0
 23 24  1  0  0  0  0
 23 25  1  0  0  0  0
 25 26  2  0  0  0  0
 25 34  1  0  0  0  0
 26 27  1  0  0  0  0
 27 28  2  0  0  0  0
 27 32  1  0  0  0  0
 28 29  1  0  0  0  0
 29 30  2  0  0  0  0
 30 31  1  0  0  0  0
 30 45  1  0  0  0  0
 31 32  2  0  0  0  0
 31 42  1  0  0  0  0
 32 33  1  0  0  0  0
 33 34  2  0  0  0  0
 33 38  1  0  0  0  0
 34 35  1  0  0  0  0
 35 36  2  0  0  0  0
 36 37  1  0  0  0  0
 37 38  2  0  0  0  0
 38 39  1  0  0  0  0
 39 40  1  0  0  0  0
 40 41  1  0  0  0  0
 41 42  1  0  0  0  0
 42 43  2  0  0  0  0
 43 44  1  0  0  0  0
 44 45  2  0  0  0  0
 46 47  1  0  0  0  0
 47 48  1  0  0  0  0
 47 51  1  1  0  0  0
 47 50  1  0  0  0  0
 48 49  1  1  0  0  0
 51 52  1  0  0  0  0
 51 53  1  0  0  0  0
 51 54  1  0  0  0  0
M  END
$$$$