
 OpenBabel11212020433D

 54 62  0  0  1  0  0  0  0  0999 V2000
   -1.4353    5.8695   -2.7789 O   0  0  0  0  0  0  0  0  0  0  0  0
   -1.4141    4.8470   -3.6996 C   0  0  0  0  0  0  0  0  0  0  0  0
   -0.3589    4.0343   -3.8605 C   0  0  0  0  0  0  0  0  0  0  0  0
    0.7301    4.1535   -3.0199 O   0  0  0  0  0  0  0  0  0  0  0  0
    1.9583    3.4827   -3.2765 C   0  0  2  0  0  0  0  0  0  0  0  0
    3.1480    4.1652   -2.7987 O   0  0  0  0  0  0  0  0  0  0  0  0
    3.2495    5.5475   -2.7510 C   0  0  0  0  0  0  0  0  0  0  0  0
    4.4396    6.1872   -2.8499 C   0  0  0  0  0  0  0  0  0  0  0  0
    4.5641    7.5747   -2.7595 O   0  0  0  0  0  0  0  0  0  0  0  0
    3.4429    8.3592   -2.5406 C   0  0  0  0  0  0  0  0  0  0  0  0
    2.2283    7.8180   -2.3645 C   0  0  0  0  0  0  0  0  0  0  0  0
    2.0112    6.3472   -2.4507 C   0  0  0  0  0  0  0  0  0  0  0  0
    0.9901    8.6458   -2.1838 C   0  0  3  0  0  0  0  0  0  0  0  0
    0.4380    8.3884   -0.9042 O   0  0  0  0  0  0  0  0  0  0  0  0
   -0.7148    9.0544   -0.6158 C   0  0  0  0  0  0  0  0  0  0  0  0
   -1.4491    8.7269    0.3011 O   0  0  0  0  0  0  0  0  0  0  0  0
   -1.0053   10.0836   -1.4538 O   0  0  0  0  0  0  0  0  0  0  0  0
    0.0555   10.8760   -1.9733 C   0  0  3  0  0  0  0  0  0  0  0  0
    1.2984   10.0925   -2.2013 C   0  0  0  0  0  0  0  0  0  0  0  0
    2.5486   10.5789   -2.3727 C   0  0  0  0  0  0  0  0  0  0  0  0
    3.6216    9.7173   -2.5377 O   0  3  0  0  0  0  0  0  0  0  0  0
    2.8647   12.0230   -2.3794 C   0  0  0  0  0  0  0  0  0  0  0  0
    3.2243   12.7021   -1.1699 O   0  0  0  0  0  0  0  0  0  0  0  0
    4.2147   12.4804   -2.1929 O   0  0  0  0  0  0  0  0  0  0  0  0
   -0.3178   11.3419   -3.2568 O   0  0  0  0  0  0  0  0  0  0  0  0
    5.7488    5.5216   -3.0375 C   0  0  0  0  0  0  0  0  0  0  0  0
    6.3734    5.2205   -1.8768 N   0  0  0  0  0  0  0  0  0  0  0  0
    7.5730    4.6195   -1.9729 C   0  0  0  0  0  0  0  0  0  0  0  0
    8.2087    4.3243   -0.8306 F   0  0  0  0  0  0  0  0  0  0  0  0
    8.1989    4.3127   -3.1661 C   0  0  0  0  0  0  0  0  0  0  0  0
    7.5879    4.6626   -4.3815 C   0  0  0  0  0  0  0  0  0  0  0  0
    6.3297    5.3184   -4.3138 C   0  0  0  0  0  0  0  0  0  0  0  0
    5.7268    5.7400   -5.5147 C   0  0  0  0  0  0  0  0  0  0  0  0
    6.3047    5.4498   -6.7524 C   0  0  0  0  0  0  0  0  0  0  0  0
    5.6532    5.9174   -7.9804 C   0  0  0  0  0  0  0  0  0  0  0  0
    4.6783    6.6537   -7.9454 O   0  0  0  0  0  0  0  0  0  0  0  0
    6.2909    5.4933   -9.2828 C   0  0  0  0  0  0  0  0  0  0  0  0
    6.0593    6.0951  -10.3213 O   0  0  0  0  0  0  0  0  0  0  0  0
    7.2038    4.2976   -9.1613 C   0  0  1  0  0  0  0  0  0  0  0  0
    8.0698    4.3499   -8.0188 O   0  0  0  0  0  0  0  0  0  0  0  0
    7.4885    4.7296   -6.8316 C   0  0  0  0  0  0  0  0  0  0  0  0
    8.1788    4.3861   -5.6514 C   0  0  0  0  0  0  0  0  0  0  0  0
    9.3251    3.5677   -5.7688 N   0  0  0  0  0  0  0  0  0  0  0  0
    6.4327    3.0170   -9.1969 C   0  0  1  0  0  0  0  0  0  0  0  0
    5.4292    2.8376   -8.1704 O   0  0  0  0  0  0  0  0  0  0  0  0
    6.0542    2.5954  -10.5086 O   0  0  0  0  0  0  0  0  0  0  0  0
    6.9075    1.7921   -9.8406 C   0  0  0  0  0  0  0  0  0  0  0  0
    6.7837    0.6383   -9.5081 O   0  0  0  0  0  0  0  0  0  0  0  0
    2.1493    3.0203   -4.7112 C   0  0  0  0  0  0  0  0  0  0  0  0
    3.1425    3.1571   -5.4073 O   0  0  0  0  0  0  0  0  0  0  0  0
    0.9071    2.3593   -5.2310 C   0  0  0  0  0  0  0  0  0  0  0  0
    0.9629    1.2608   -5.7538 O   0  0  0  0  0  0  0  0  0  0  0  0
   -0.4044    3.0674   -4.9930 C   0  0  0  0  0  0  0  0  0  0  0  0
   -1.3721    2.8931   -5.7132 O   0  0  0  0  0  0  0  0  0  0  0  0
  1  2  1  0  0  0  0
  2  3  2  0  0  0  0
  3  4  1  0  0  0  0
  3 53  1  0  0  0  0
  4  5  1  0  0  0  0
  5  6  1  6  0  0  0
  5 49  1  0  0  0  0
  6  7  1  0  0  0  0
  7  8  2  0  0  0  0
  7 12  1  0  0  0  0
  8  9  1  0  0  0  0
  8 26  1  0  0  0  0
  9 10  1  0  0  0  0
 10 11  2  0  0  0  0
 10 21  1  0  0  0  0
 11 12  1  0  0  0  0
 11 13  1  0  0  0  0
 13 14  1  0  0  0  0
 13 19  1  0  0  0  0
 14 15  1  0  0  0  0
 15 16  2  0  0  0  0
 15 17  1  0  0  0  0
 17 18  1  0  0  0  0
 18 19  1  0  0  0  0
 18 25  1  0  0  0  0
 19 20  2  0  0  0  0
 20 21  1  0  0  0  0
 20 22  1  0  0  0  0
 22 23  1  0  0  0  0
 22 24  1  0  0  0  0
 23 24  1  0  0  0  0
 26 27  2  0  0  0  0
 26 32  1  0  0  0  0
 27 28  1  0  0  0  0
 28 29  1  0  0  0  0
 28 30  2  0  0  0  0
 30 31  1  0  0  0  0
 31 32  2  0  0  0  0
 31 42  1  0  0  0  0
 32 33  1  0  0  0  0
 33 34  2  0  0  0  0
 34 35  1  0  0  0  0
 34 41  1  0  0  0  0
 35 36  2  0  0  0  0
 35 37  1  0  0  0  0
 37 38  2  0  0  0  0
 39 37  1  1  0  0  0
 39 40  1  0  0  0  0
 39 44  1  0  0  0  0
 40 41  1  0  0  0  0
 41 42  2  0  0  0  0
 42 43  1  0  0  0  0
 44 45  1  1  0  0  0
 44 46  1  0  0  0  0
 44 47  1  0  0  0  0
 46 47  1  0  0  0  0
 47 48  2  0  0  0  0
 49 50  2  0  0  0  0
 49 51  1  0  0  0  0
 51 52  2  0  0  0  0
 51 53  1  0  0  0  0
 53 54  2  0  0  0  0
M  CHG  1  21   1
M  END
$$$$