
 OpenBabel11262000353D

 55 63  0  0  1  0  0  0  0  0999 V2000
   -1.8512    0.2355    6.4266 O   0  0  0  0  0  0  0  0  0  0  0  0
   -1.8873   -0.3059    5.1678 C   0  0  0  0  0  0  0  0  0  0  0  0
   -1.0135    0.0396    4.2153 C   0  0  0  0  0  0  0  0  0  0  0  0
   -0.0642    1.0132    4.4648 O   0  0  0  0  0  0  0  0  0  0  0  0
    1.1581    0.8750    3.7485 C   0  0  2  0  0  0  0  0  0  0  0  0
    2.0796    1.9105    4.0962 O   0  0  0  0  0  0  0  0  0  0  0  0
    2.4706    1.9832    5.4280 C   0  0  0  0  0  0  0  0  0  0  0  0
    2.8020    3.1669    5.9804 C   0  0  0  0  0  0  0  0  0  0  0  0
    3.2963    3.3165    7.2663 O   0  0  0  0  0  0  0  0  0  0  0  0
    3.5668    2.1883    8.0073 C   0  0  0  0  0  0  0  0  0  0  0  0
    3.2587    0.9218    7.5599 C   0  0  0  0  0  0  0  0  0  0  0  0
    2.6139    0.7151    6.2255 C   0  0  0  0  0  0  0  0  0  0  0  0
    3.5687   -0.1379    8.4111 C   0  0  0  0  0  0  0  0  0  0  0  0
    3.2427   -1.4216    7.9796 O   0  0  0  0  0  0  0  0  0  0  0  0
    3.5537   -2.5071    8.7634 C   0  0  0  0  0  0  0  0  0  0  0  0
    3.2742   -3.6866    8.3388 N   0  0  0  0  0  0  0  0  0  0  0  0
    4.1372   -2.3292    9.9611 O   0  0  0  0  0  0  0  0  0  0  0  0
    4.4381   -1.1142   10.4600 C   0  0  0  0  0  0  0  0  0  0  0  0
    4.9004   -0.9937   11.5866 O   0  0  0  0  0  0  0  0  0  0  0  0
    4.1813    0.0632    9.6309 C   0  0  0  0  0  0  0  0  0  0  0  0
    4.5084    1.3708   10.0103 C   0  0  0  0  0  0  0  0  0  0  0  0
    4.1707    2.4169    9.1923 N   0  0  0  0  0  0  0  0  0  0  0  0
    5.2541    1.7165   11.2856 C   0  0  0  0  0  0  0  0  0  0  0  0
    6.6881    1.7716   11.2098 O   0  0  0  0  0  0  0  0  0  0  0  0
    5.9283    2.9879   11.3418 O   0  0  0  0  0  0  0  0  0  0  0  0
    2.7173    4.4344    5.2316 C   0  0  0  0  0  0  0  0  0  0  0  0
    3.8591    4.8179    4.5267 C   0  0  0  0  0  0  0  0  0  0  0  0
    3.8123    5.9826    3.8009 C   0  0  0  0  0  0  0  0  0  0  0  0
    4.9057    6.3625    3.1266 F   0  0  0  0  0  0  0  0  0  0  0  0
    2.7326    6.7785    3.7328 N   0  0  0  0  0  0  0  0  0  0  0  0
    1.6272    6.4301    4.4138 C   0  0  0  0  0  0  0  0  0  0  0  0
    1.5546    5.2560    5.1963 C   0  0  0  0  0  0  0  0  0  0  0  0
    0.3447    4.9936    5.8927 C   0  0  0  0  0  0  0  0  0  0  0  0
    0.2540    3.8839    6.6415 F   0  0  0  0  0  0  0  0  0  0  0  0
   -0.7508    5.8615    5.8281 C   0  0  0  0  0  0  0  0  0  0  0  0
   -1.9851    5.5977    6.5734 C   0  0  0  0  0  0  0  0  0  0  0  0
   -2.1140    4.6600    7.3433 O   0  0  0  0  0  0  0  0  0  0  0  0
   -3.1508    6.5311    6.3415 C   0  0  0  0  0  0  0  0  0  0  0  0
   -4.1777    6.4220    7.0006 O   0  0  0  0  0  0  0  0  0  0  0  0
   -3.0161    7.4669    5.1677 C   0  0  1  0  0  0  0  0  0  0  0  0
   -1.6841    7.9095    4.9000 O   0  0  0  0  0  0  0  0  0  0  0  0
   -0.6734    7.0014    5.0495 C   0  0  0  0  0  0  0  0  0  0  0  0
    0.5113    7.2662    4.3578 C   0  0  0  0  0  0  0  0  0  0  0  0
    0.5621    8.3763    3.6002 F   0  0  0  0  0  0  0  0  0  0  0  0
   -3.7161    6.9092    3.9483 C   0  0  1  0  0  0  0  0  0  0  0  0
   -5.1416    6.6904    4.0580 O   0  0  0  0  0  0  0  0  0  0  0  0
   -3.2861    7.4655    2.6895 O   0  0  0  0  0  0  0  0  0  0  0  0
   -3.0373    6.1722    2.9037 C   0  0  0  0  0  0  0  0  0  0  0  0
   -2.0133    5.5105    2.9256 O   0  0  0  0  0  0  0  0  0  0  0  0
    0.8699    0.9178    2.2599 C   0  0  0  0  0  0  0  0  0  0  0  0
    1.3521    1.6736    1.4324 O   0  0  0  0  0  0  0  0  0  0  0  0
   -0.1056   -0.1571    1.8657 C   0  0  0  0  0  0  0  0  0  0  0  0
   -0.0095   -0.7035    0.7786 O   0  0  0  0  0  0  0  0  0  0  0  0
   -1.1299   -0.6197    2.8824 C   0  0  0  0  0  0  0  0  0  0  0  0
   -1.9470   -1.4870    2.6203 O   0  0  0  0  0  0  0  0  0  0  0  0
  1  2  1  0  0  0  0
  2  3  2  0  0  0  0
  3  4  1  0  0  0  0
  3 54  1  0  0  0  0
  4  5  1  0  0  0  0
  5  6  1  1  0  0  0
  5 50  1  0  0  0  0
  6  7  1  0  0  0  0
  7  8  2  0  0  0  0
  7 12  1  0  0  0  0
  8  9  1  0  0  0  0
  8 26  1  0  0  0  0
  9 10  1  0  0  0  0
 10 11  2  0  0  0  0
 10 22  1  0  0  0  0
 11 12  1  0  0  0  0
 11 13  1  0  0  0  0
 13 14  1  0  0  0  0
 13 20  2  0  0  0  0
 14 15  1  0  0  0  0
 15 16  2  0  0  0  0
 15 17  1  0  0  0  0
 17 18  1  0  0  0  0
 18 19  2  0  0  0  0
 18 20  1  0  0  0  0
 20 21  1  0  0  0  0
 21 22  2  0  0  0  0
 21 23  1  0  0  0  0
 23 24  1  0  0  0  0
 23 25  1  0  0  0  0
 24 25  1  0  0  0  0
 26 27  2  0  0  0  0
 26 32  1  0  0  0  0
 27 28  1  0  0  0  0
 28 29  1  0  0  0  0
 28 30  2  0  0  0  0
 30 31  1  0  0  0  0
 31 32  2  0  0  0  0
 31 43  1  0  0  0  0
 32 33  1  0  0  0  0
 33 34  1  0  0  0  0
 33 35  2  0  0  0  0
 35 36  1  0  0  0  0
 35 42  1  0  0  0  0
 36 37  2  0  0  0  0
 36 38  1  0  0  0  0
 38 39  2  0  0  0  0
 40 38  1  1  0  0  0
 40 41  1  0  0  0  0
 40 45  1  0  0  0  0
 41 42  1  0  0  0  0
 42 43  2  0  0  0  0
 43 44  1  0  0  0  0
 45 46  1  1  0  0  0
 45 47  1  0  0  0  0
 45 48  1  0  0  0  0
 47 48  1  0  0  0  0
 48 49  2  0  0  0  0
 50 51  2  0  0  0  0
 50 52  1  0  0  0  0
 52 53  2  0  0  0  0
 52 54  1  0  0  0  0
 54 55  2  0  0  0  0
M  END
$$$$