
 OpenBabel11242000273D

 54 63  0  0  1  0  0  0  0  0999 V2000
    5.3648    5.7400    7.4785 O   0  0  0  0  0  0  0  0  0  0  0  0
    5.3525    4.4233    7.0901 C   0  0  0  0  0  0  0  0  0  0  0  0
    5.0041    4.0481    5.8539 C   0  0  0  0  0  0  0  0  0  0  0  0
    4.6146    5.0021    4.9274 O   0  0  0  0  0  0  0  0  0  0  0  0
    4.6268    4.6114    3.5628 C   0  0  2  0  0  0  0  0  0  0  0  0
    4.1252    5.6449    2.6829 O   0  0  0  0  0  0  0  0  0  0  0  0
    4.8724    6.8090    2.5513 C   0  0  0  0  0  0  0  0  0  0  0  0
    4.7230    7.6264    1.4792 C   0  0  0  0  0  0  0  0  0  0  0  0
    5.4123    8.8412    1.3814 O   0  0  0  0  0  0  0  0  0  0  0  0
    6.2436    9.2579    2.4169 C   0  0  0  0  0  0  0  0  0  0  0  0
    6.4651    8.4975    3.4983 C   0  0  0  0  0  0  0  0  0  0  0  0
    5.8249    7.1711    3.6708 C   0  0  0  0  0  0  0  0  0  0  0  0
    7.3182    8.9900    4.6396 C   0  0  3  0  0  0  0  0  0  0  0  0
    8.4200    8.0567    4.8258 N   0  0  0  0  0  0  0  0  0  0  0  0
    9.3107    8.3526    5.8050 C   0  0  0  0  0  0  0  0  0  0  0  0
    9.8647    7.4559    6.5346 N   0  0  0  0  0  0  0  0  0  0  0  0
    9.6458    9.6531    5.9161 N   0  0  0  0  0  0  0  0  0  0  0  0
    8.7765   10.7529    5.5827 C   0  0  0  0  0  0  0  0  0  0  0  0
    7.9132   10.3524    4.4247 C   0  0  0  0  0  0  0  0  0  0  0  0
    7.6704   11.0551    3.2926 C   0  0  0  0  0  0  0  0  0  0  0  0
    6.8234   10.4963    2.3284 N   0  0  0  0  0  0  0  0  0  0  0  0
    8.2392   12.3874    2.9950 C   0  0  3  0  0  0  0  0  0  0  0  0
    7.9076   13.0157    1.7578 N   0  0  0  0  0  0  0  0  0  0  0  0
    9.0517   12.5339    1.8402 N   0  0  0  0  0  0  0  0  0  0  0  0
    3.7948    7.3627    0.3294 C   0  0  0  0  0  0  0  0  0  0  0  0
    2.5806    6.7243    0.5852 C   0  0  0  0  0  0  0  0  0  0  0  0
    1.7064    6.4774   -0.3911 N   0  3  0  0  0  0  0  0  0  0  0  0
    0.5973    5.7663   -0.1105 F   0  0  0  0  0  0  0  0  0  0  0  0
    1.8915    6.9093   -1.6226 N   0  3  0  0  0  0  0  0  0  0  0  0
    3.0262    7.5441   -1.9926 C   0  0  0  0  0  0  0  0  0  0  0  0
    4.0574    7.7385   -1.0227 C   0  0  0  0  0  0  0  0  0  0  0  0
    5.3032    8.2319   -1.5111 C   0  0  0  0  0  0  0  0  0  0  0  0
    5.5094    8.5012   -2.8745 C   0  0  0  0  0  0  0  0  0  0  0  0
    4.4396    8.4136   -3.7564 C   0  0  0  0  0  0  0  0  0  0  0  0
    3.1836    7.9675   -3.3369 C   0  0  0  0  0  0  0  0  0  0  0  0
    2.1695    7.7239   -4.3027 N   0  0  0  0  0  0  0  0  0  0  0  0
    4.6320    8.6230   -5.0991 O   0  0  0  0  0  0  0  0  0  0  0  0
    5.8240    7.9063   -5.5190 C   0  0  1  0  0  0  0  0  0  0  0  0
    7.0636    8.4542   -4.9545 C   0  0  0  0  0  0  0  0  0  0  0  0
    8.0749    8.6465   -5.5754 O   0  0  0  0  0  0  0  0  0  0  0  0
    6.8811    8.6724   -3.4340 C   0  0  0  0  0  0  0  0  0  0  0  0
    7.8243    8.8420   -2.6856 O   0  0  0  0  0  0  0  0  0  0  0  0
    5.7457    6.5153   -5.3353 O   0  0  0  0  0  0  0  0  0  0  0  0
    5.6985    6.9294   -6.7183 C   0  0  1  0  0  0  0  0  0  0  0  0
    4.6604    7.5064   -7.5282 O   0  0  0  0  0  0  0  0  0  0  0  0
    4.3829    6.2856   -7.1276 C   0  0  0  0  0  0  0  0  0  0  0  0
    3.4317    5.9343   -6.4402 O   0  0  0  0  0  0  0  0  0  0  0  0
    0.9227    6.6450   -2.5222 F   0  0  0  0  0  0  0  0  0  0  0  0
    3.6934    3.4330    3.4380 C   0  0  0  0  0  0  0  0  0  0  0  0
    2.6741    3.4006    2.7604 O   0  0  0  0  0  0  0  0  0  0  0  0
    4.1922    2.2744    4.2625 C   0  0  0  0  0  0  0  0  0  0  0  0
    4.0723    1.1426    3.8295 O   0  0  0  0  0  0  0  0  0  0  0  0
    4.9399    2.5874    5.5507 C   0  0  0  0  0  0  0  0  0  0  0  0
    5.4400    1.7169    6.2382 O   0  0  0  0  0  0  0  0  0  0  0  0
  1  2  1  0  0  0  0
  2  3  2  0  0  0  0
  3  4  1  0  0  0  0
  3 53  1  0  0  0  0
  4  5  1  0  0  0  0
  5  6  1  6  0  0  0
  5 49  1  0  0  0  0
  6  7  1  0  0  0  0
  7  8  2  0  0  0  0
  7 12  1  0  0  0  0
  8  9  1  0  0  0  0
  8 25  1  0  0  0  0
  9 10  1  0  0  0  0
 10 11  2  0  0  0  0
 10 21  1  0  0  0  0
 11 12  1  0  0  0  0
 11 13  1  0  0  0  0
 13 14  1  0  0  0  0
 13 19  1  0  0  0  0
 14 15  1  0  0  0  0
 15 16  2  0  0  0  0
 15 17  1  0  0  0  0
 17 18  1  0  0  0  0
 18 19  1  0  0  0  0
 19 20  2  0  0  0  0
 20 21  1  0  0  0  0
 20 22  1  0  0  0  0
 22 23  1  0  0  0  0
 22 24  1  0  0  0  0
 23 24  2  0  0  0  0
 25 26  2  0  0  0  0
 25 31  1  0  0  0  0
 26 27  1  0  0  0  0
 27 28  1  0  0  0  0
 27 29  2  0  0  0  0
 29 30  1  0  0  0  0
 29 48  1  0  0  0  0
 30 31  2  0  0  0  0
 30 35  1  0  0  0  0
 31 32  1  0  0  0  0
 32 33  2  0  0  0  0
 33 34  1  0  0  0  0
 33 41  1  0  0  0  0
 34 35  2  0  0  0  0
 34 37  1  0  0  0  0
 35 36  1  0  0  0  0
 38 37  1  1  0  0  0
 38 39  1  0  0  0  0
 38 43  1  0  0  0  0
 38 44  1  0  0  0  0
 39 40  2  0  0  0  0
 39 41  1  0  0  0  0
 41 42  2  0  0  0  0
 44 43  1  1  0  0  0
 44 45  1  0  0  0  0
 44 46  1  0  0  0  0
 45 46  1  0  0  0  0
 46 47  2  0  0  0  0
 49 50  2  0  0  0  0
 49 51  1  0  0  0  0
 51 52  2  0  0  0  0
 51 53  1  0  0  0  0
 53 54  2  0  0  0  0
M  CHG  2  27   1  29   1
M  END
$$$$