
 OpenBabel11272002573D

 54 62  0  0  1  0  0  0  0  0999 V2000
    6.9996   -3.3996    3.9373 F   0  0  0  0  0  0  0  0  0  0  0  0
    6.6609   -2.1093    4.1277 C   0  0  0  0  0  0  0  0  0  0  0  0
    5.4298   -1.6629    3.8614 C   0  0  0  0  0  0  0  0  0  0  0  0
    4.4704   -2.5030    3.3223 O   0  0  0  0  0  0  0  0  0  0  0  0
    3.1136   -2.2066    3.6592 C   0  0  2  0  0  0  0  0  0  0  0  0
    2.1945   -3.1419    3.0374 O   0  0  0  0  0  0  0  0  0  0  0  0
    2.2617   -4.4875    3.3891 C   0  0  0  0  0  0  0  0  0  0  0  0
    1.4957   -5.4355    2.7831 C   0  0  0  0  0  0  0  0  0  0  0  0
    1.6277   -6.7992    3.1204 O   0  0  0  0  0  0  0  0  0  0  0  0
    2.5963   -7.2215    4.0389 C   0  0  0  0  0  0  0  0  0  0  0  0
    3.3280   -6.3307    4.7245 C   0  0  0  0  0  0  0  0  0  0  0  0
    3.2039   -4.8667    4.5041 C   0  0  0  0  0  0  0  0  0  0  0  0
    4.3470   -6.7283    5.7525 C   0  0  3  0  0  0  0  0  0  0  0  0
    3.8793   -6.2556    7.0019 O   0  0  0  0  0  0  0  0  0  0  0  0
    4.6113   -6.5607    8.1068 C   0  0  0  0  0  0  0  0  0  0  0  0
    4.4492   -5.9603    9.1560 O   0  0  0  0  0  0  0  0  0  0  0  0
    5.5083   -7.5662    7.9680 O   0  0  0  0  0  0  0  0  0  0  0  0
    5.4855   -8.5106    6.9016 C   0  0  3  0  0  0  0  0  0  0  0  0
    4.4613   -8.1936    5.8724 C   0  0  0  0  0  0  0  0  0  0  0  0
    3.7205   -9.0520    5.1366 C   0  0  0  0  0  0  0  0  0  0  0  0
    2.7720   -8.5753    4.2366 O   0  3  0  0  0  0  0  0  0  0  0  0
    3.8373  -10.5239    5.2343 C   0  0  0  0  0  0  0  0  0  0  0  0
    3.0211  -11.2687    6.1449 O   0  0  0  0  0  0  0  0  0  0  0  0
    2.7907  -11.3689    4.7260 O   0  0  0  0  0  0  0  0  0  0  0  0
    6.7183   -8.4500    6.2121 O   0  0  0  0  0  0  0  0  0  0  0  0
    0.3902   -5.1327    1.7899 C   0  0  0  0  0  0  0  0  0  0  0  0
   -0.2120   -3.9376    1.9837 N   0  0  0  0  0  0  0  0  0  0  0  0
   -1.2193   -3.5657    1.2053 N   0  3  0  0  0  0  0  0  0  0  0  0
   -1.7929   -2.3668    1.4271 F   0  0  0  0  0  0  0  0  0  0  0  0
   -1.6996   -4.3389    0.2271 C   0  0  0  0  0  0  0  0  0  0  0  0
   -1.1469   -5.5871   -0.0238 C   0  0  0  0  0  0  0  0  0  0  0  0
   -0.0682   -6.0204    0.7743 C   0  0  0  0  0  0  0  0  0  0  0  0
    0.4538   -7.2983    0.4583 C   0  0  0  0  0  0  0  0  0  0  0  0
   -0.0496   -8.0755   -0.6040 C   0  0  0  0  0  0  0  0  0  0  0  0
    0.5749   -9.3616   -0.9019 C   0  0  0  0  0  0  0  0  0  0  0  0
    1.3909   -9.8342   -0.1227 O   0  0  0  0  0  0  0  0  0  0  0  0
    0.2164  -10.0250   -2.2113 C   0  0  0  0  0  0  0  0  0  0  0  0
    0.7577  -11.0752   -2.5278 O   0  0  0  0  0  0  0  0  0  0  0  0
   -0.6707   -9.2112   -3.1314 C   0  0  1  0  0  0  0  0  0  0  0  0
   -1.5759   -8.3084   -2.4668 O   0  0  0  0  0  0  0  0  0  0  0  0
   -1.0919   -7.6277   -1.3887 C   0  0  0  0  0  0  0  0  0  0  0  0
   -1.6502   -6.3911   -1.0708 C   0  0  0  0  0  0  0  0  0  0  0  0
   -2.6700   -5.9222   -1.8064 F   0  0  0  0  0  0  0  0  0  0  0  0
    0.1650   -8.5379   -4.2015 C   0  0  1  0  0  0  0  0  0  0  0  0
    0.9272   -9.4003   -5.0740 O   0  0  0  0  0  0  0  0  0  0  0  0
   -0.4729   -7.4246   -4.8535 O   0  0  0  0  0  0  0  0  0  0  0  0
    0.6171   -7.1597   -4.1291 C   0  0  0  0  0  0  0  0  0  0  0  0
    0.8027   -6.4289   -3.1661 O   0  0  0  0  0  0  0  0  0  0  0  0
    2.7829   -0.8011    3.2060 C   0  0  0  0  0  0  0  0  0  0  0  0
    1.8491   -0.4841    2.4853 O   0  0  0  0  0  0  0  0  0  0  0  0
    3.7321    0.2057    3.8061 C   0  0  0  0  0  0  0  0  0  0  0  0
    3.3138    1.3020    4.1347 O   0  0  0  0  0  0  0  0  0  0  0  0
    5.1565   -0.2210    4.1134 C   0  0  0  0  0  0  0  0  0  0  0  0
    5.9824    0.5536    4.5615 O   0  0  0  0  0  0  0  0  0  0  0  0
  1  2  1  0  0  0  0
  2  3  2  0  0  0  0
  3  4  1  0  0  0  0
  3 53  1  0  0  0  0
  4  5  1  0  0  0  0
  5  6  1  6  0  0  0
  5 49  1  0  0  0  0
  6  7  1  0  0  0  0
  7  8  2  0  0  0  0
  7 12  1  0  0  0  0
  8  9  1  0  0  0  0
  8 26  1  0  0  0  0
  9 10  1  0  0  0  0
 10 11  2  0  0  0  0
 10 21  1  0  0  0  0
 11 12  1  0  0  0  0
 11 13  1  0  0  0  0
 13 14  1  0  0  0  0
 13 19  1  0  0  0  0
 14 15  1  0  0  0  0
 15 16  2  0  0  0  0
 15 17  1  0  0  0  0
 17 18  1  0  0  0  0
 18 19  1  0  0  0  0
 18 25  1  0  0  0  0
 19 20  2  0  0  0  0
 20 21  1  0  0  0  0
 20 22  1  0  0  0  0
 22 23  1  0  0  0  0
 22 24  1  0  0  0  0
 23 24  1  0  0  0  0
 26 27  2  0  0  0  0
 26 32  1  0  0  0  0
 27 28  1  0  0  0  0
 28 29  1  0  0  0  0
 28 30  2  0  0  0  0
 30 31  1  0  0  0  0
 31 32  2  0  0  0  0
 31 42  1  0  0  0  0
 32 33  1  0  0  0  0
 33 34  2  0  0  0  0
 34 35  1  0  0  0  0
 34 41  1  0  0  0  0
 35 36  2  0  0  0  0
 35 37  1  0  0  0  0
 37 38  2  0  0  0  0
 39 37  1  1  0  0  0
 39 40  1  0  0  0  0
 39 44  1  0  0  0  0
 40 41  1  0  0  0  0
 41 42  2  0  0  0  0
 42 43  1  0  0  0  0
 44 45  1  6  0  0  0
 44 46  1  0  0  0  0
 44 47  1  0  0  0  0
 46 47  1  0  0  0  0
 47 48  2  0  0  0  0
 49 50  2  0  0  0  0
 49 51  1  0  0  0  0
 51 52  2  0  0  0  0
 51 53  1  0  0  0  0
 53 54  2  0  0  0  0
M  CHG  2  21   1  28   1
M  END
$$$$