
 OpenBabel11222017493D

 55 63  0  0  1  0  0  0  0  0999 V2000
   -1.4908    4.0965   -0.3838 O   0  0  0  0  0  0  0  0  0  0  0  0
   -0.7968    3.1231    0.2923 C   0  0  0  0  0  0  0  0  0  0  0  0
    0.2449    2.4769   -0.2433 C   0  0  0  0  0  0  0  0  0  0  0  0
    0.6494    2.7496   -1.5400 O   0  0  0  0  0  0  0  0  0  0  0  0
    2.0593    2.7529   -1.6751 C   0  0  2  0  0  0  0  0  0  0  0  0
    2.4495    3.1336   -3.0083 O   0  0  0  0  0  0  0  0  0  0  0  0
    2.3197    4.4496   -3.4192 C   0  0  0  0  0  0  0  0  0  0  0  0
    2.7086    4.8122   -4.6635 C   0  0  0  0  0  0  0  0  0  0  0  0
    2.5759    6.1301   -5.1236 O   0  0  0  0  0  0  0  0  0  0  0  0
    2.0905    7.1293   -4.2750 C   0  0  0  0  0  0  0  0  0  0  0  0
    1.7417    6.8578   -3.0042 C   0  0  0  0  0  0  0  0  0  0  0  0
    1.7575    5.4646   -2.4549 C   0  0  0  0  0  0  0  0  0  0  0  0
    1.3076    7.9352   -2.0462 C   0  0  3  0  0  0  0  0  0  0  0  0
    2.1967    7.9152   -0.9396 O   0  0  0  0  0  0  0  0  0  0  0  0
    1.8754    8.7796    0.0649 C   0  0  0  0  0  0  0  0  0  0  0  0
    2.2747    8.6228    1.2052 O   0  0  0  0  0  0  0  0  0  0  0  0
    1.0447    9.7832   -0.3134 O   0  0  0  0  0  0  0  0  0  0  0  0
    1.2722   10.3436   -1.5983 C   0  0  3  0  0  0  0  0  0  0  0  0
    1.4361    9.2865   -2.6416 C   0  0  0  0  0  0  0  0  0  0  0  0
    1.7318    9.4860   -3.9462 C   0  0  0  0  0  0  0  0  0  0  0  0
    1.9937    8.4078   -4.7807 O   0  3  0  0  0  0  0  0  0  0  0  0
    1.8649   10.8240   -4.5691 C   0  0  0  0  0  0  0  0  0  0  0  0
    3.1512   11.4408   -4.7055 O   0  0  0  0  0  0  0  0  0  0  0  0
    2.4610   10.9564   -5.8730 O   0  0  0  0  0  0  0  0  0  0  0  0
    0.1341   11.0871   -1.9783 O   0  0  0  0  0  0  0  0  0  0  0  0
    3.3338    3.8562   -5.6405 C   0  0  0  0  0  0  0  0  0  0  0  0
    4.2732    2.9293   -5.1761 C   0  0  0  0  0  0  0  0  0  0  0  0
    4.8683    2.0629   -6.0013 N   0  3  0  0  0  0  0  0  0  0  0  0
    5.7328    1.1631   -5.4937 F   0  0  0  0  0  0  0  0  0  0  0  0
    4.6526    2.0597   -7.2998 N   0  0  0  0  0  0  0  0  0  0  0  0
    3.7623    2.9029   -7.8236 C   0  0  0  0  0  0  0  0  0  0  0  0
    3.0503    3.8293   -7.0289 C   0  0  0  0  0  0  0  0  0  0  0  0
    2.0839    4.6384   -7.6719 C   0  0  0  0  0  0  0  0  0  0  0  0
    1.8355    4.5260   -9.0467 C   0  0  0  0  0  0  0  0  0  0  0  0
    0.7958    5.3426   -9.6700 C   0  0  0  0  0  0  0  0  0  0  0  0
    0.2611    6.2419   -9.0398 O   0  0  0  0  0  0  0  0  0  0  0  0
    0.4737    5.0396  -11.1132 C   0  0  0  0  0  0  0  0  0  0  0  0
   -0.0380    5.9062  -11.8056 O   0  0  0  0  0  0  0  0  0  0  0  0
    0.9093    3.6640  -11.5803 C   0  0  1  0  0  0  0  0  0  0  0  0
    2.2537    3.3611  -11.1300 O   0  0  0  0  0  0  0  0  0  0  0  0
    2.5289    3.6125   -9.8159 C   0  0  0  0  0  0  0  0  0  0  0  0
    3.5095    2.8402   -9.1958 C   0  0  0  0  0  0  0  0  0  0  0  0
    4.1973    1.9569   -9.9370 F   0  0  0  0  0  0  0  0  0  0  0  0
   -0.0988    2.5531  -11.2778 C   0  0  1  0  0  0  0  0  0  0  0  0
   -1.3914    2.5437  -11.9257 N   0  0  0  0  0  0  0  0  0  0  0  0
   -1.7158    3.6068  -12.4784 N   0  0  0  0  0  0  0  0  0  0  0  0
    0.5072    1.2302  -11.1566 O   0  0  0  0  0  0  0  0  0  0  0  0
   -0.0336    1.7545  -10.0604 C   0  0  0  0  0  0  0  0  0  0  0  0
    0.4027    1.9668   -8.9443 O   0  0  0  0  0  0  0  0  0  0  0  0
    2.6179    1.3642   -1.4412 C   0  0  0  0  0  0  0  0  0  0  0  0
    3.4616    0.8319   -2.1510 O   0  0  0  0  0  0  0  0  0  0  0  0
    2.0702    0.7329   -0.1797 C   0  0  0  0  0  0  0  0  0  0  0  0
    2.5363   -0.3157    0.2286 O   0  0  0  0  0  0  0  0  0  0  0  0
    0.9667    1.4590    0.5785 C   0  0  0  0  0  0  0  0  0  0  0  0
    0.7642    1.2738    1.7646 O   0  0  0  0  0  0  0  0  0  0  0  0
  1  2  1  0  0  0  0
  2  3  2  0  0  0  0
  3  4  1  0  0  0  0
  3 54  1  0  0  0  0
  4  5  1  0  0  0  0
  5  6  1  6  0  0  0
  5 50  1  0  0  0  0
  6  7  1  0  0  0  0
  7  8  2  0  0  0  0
  7 12  1  0  0  0  0
  8  9  1  0  0  0  0
  8 26  1  0  0  0  0
  9 10  1  0  0  0  0
 10 11  2  0  0  0  0
 10 21  1  0  0  0  0
 11 12  1  0  0  0  0
 11 13  1  0  0  0  0
 13 14  1  0  0  0  0
 13 19  1  0  0  0  0
 14 15  1  0  0  0  0
 15 16  2  0  0  0  0
 15 17  1  0  0  0  0
 17 18  1  0  0  0  0
 18 19  1  0  0  0  0
 18 25  1  0  0  0  0
 19 20  2  0  0  0  0
 20 21  1  0  0  0  0
 20 22  1  0  0  0  0
 22 23  1  0  0  0  0
 22 24  1  0  0  0  0
 23 24  1  0  0  0  0
 26 27  2  0  0  0  0
 26 32  1  0  0  0  0
 27 28  1  0  0  0  0
 28 29  1  0  0  0  0
 28 30  2  0  0  0  0
 30 31  1  0  0  0  0
 31 32  2  0  0  0  0
 31 42  1  0  0  0  0
 32 33  1  0  0  0  0
 33 34  2  0  0  0  0
 34 35  1  0  0  0  0
 34 41  1  0  0  0  0
 35 36  2  0  0  0  0
 35 37  1  0  0  0  0
 37 38  2  0  0  0  0
 39 37  1  1  0  0  0
 39 40  1  0  0  0  0
 39 44  1  0  0  0  0
 40 41  1  0  0  0  0
 41 42  2  0  0  0  0
 42 43  1  0  0  0  0
 44 45  1  6  0  0  0
 44 47  1  0  0  0  0
 44 48  1  0  0  0  0
 45 46  2  0  0  0  0
 47 48  1  0  0  0  0
 48 49  2  0  0  0  0
 50 51  2  0  0  0  0
 50 52  1  0  0  0  0
 52 53  2  0  0  0  0
 52 54  1  0  0  0  0
 54 55  2  0  0  0  0
M  CHG  2  21   1  28   1
M  END
$$$$