
 OpenBabel11252023053D

 54 62  0  0  1  0  0  0  0  0999 V2000
    4.0962   -4.2838   -2.5474 O   0  0  0  0  0  0  0  0  0  0  0  0
    3.9133   -2.9696   -2.1881 C   0  0  0  0  0  0  0  0  0  0  0  0
    3.1400   -2.5987   -1.1608 C   0  0  0  0  0  0  0  0  0  0  0  0
    2.4230   -3.5314   -0.4240 O   0  0  0  0  0  0  0  0  0  0  0  0
    2.5524   -3.3241    0.9760 C   0  0  2  0  0  0  0  0  0  0  0  0
    1.8031   -4.3324    1.7296 O   0  0  0  0  0  0  0  0  0  0  0  0
    2.1489   -5.6682    1.6018 C   0  0  0  0  0  0  0  0  0  0  0  0
    1.4563   -6.6226    2.2624 C   0  0  0  0  0  0  0  0  0  0  0  0
    1.7761   -7.9905    2.1496 O   0  0  0  0  0  0  0  0  0  0  0  0
    2.8832   -8.3998    1.3661 C   0  0  0  0  0  0  0  0  0  0  0  0
    3.6513   -7.4914    0.7293 C   0  0  0  0  0  0  0  0  0  0  0  0
    3.3188   -6.0331    0.7211 C   0  0  0  0  0  0  0  0  0  0  0  0
    4.8669   -7.8800   -0.0899 C   0  0  3  0  0  0  0  0  0  0  0  0
    6.0369   -7.2959    0.5257 N   0  0  0  0  0  0  0  0  0  0  0  0
    7.2628   -7.7258    0.1200 C   0  0  0  0  0  0  0  0  0  0  0  0
    8.3446   -7.0756    0.2879 N   0  0  0  0  0  0  0  0  0  0  0  0
    7.3632   -8.9127   -0.5291 N   0  0  0  0  0  0  0  0  0  0  0  0
    6.3316   -9.7830   -0.7195 C   0  0  0  0  0  0  0  0  0  0  0  0
    6.4095  -10.8383   -1.3263 O   0  0  0  0  0  0  0  0  0  0  0  0
    5.0666   -9.3570   -0.0791 C   0  0  0  0  0  0  0  0  0  0  0  0
    4.2561  -10.2290    0.5546 C   0  0  0  0  0  0  0  0  0  0  0  0
    3.1531   -9.7554    1.2595 O   0  3  0  0  0  0  0  0  0  0  0  0
    4.4513  -11.7042    0.6357 C   0  0  0  0  0  0  0  0  0  0  0  0
    3.9552  -12.4185    1.7849 O   0  0  0  0  0  0  0  0  0  0  0  0
    3.3242  -12.5859    0.5030 O   0  0  0  0  0  0  0  0  0  0  0  0
    0.3111   -6.2988    3.1847 C   0  0  0  0  0  0  0  0  0  0  0  0
    0.5823   -6.0315    4.5349 C   0  0  0  0  0  0  0  0  0  0  0  0
   -0.4191   -5.7834    5.3852 N   0  3  0  0  0  0  0  0  0  0  0  0
   -0.1431   -5.5436    6.6844 F   0  0  0  0  0  0  0  0  0  0  0  0
   -1.6782   -5.7945    5.0072 N   0  0  0  0  0  0  0  0  0  0  0  0
   -1.9815   -6.0435    3.7192 C   0  0  0  0  0  0  0  0  0  0  0  0
   -0.9994   -6.2942    2.7638 N   0  3  0  0  0  0  0  0  0  0  0  0
   -1.3667   -6.5416    1.4773 C   0  0  0  0  0  0  0  0  0  0  0  0
   -2.6991   -6.6326    1.1021 C   0  0  0  0  0  0  0  0  0  0  0  0
   -3.0308   -6.9651   -0.2743 C   0  0  0  0  0  0  0  0  0  0  0  0
   -2.1293   -7.1839   -1.0624 O   0  0  0  0  0  0  0  0  0  0  0  0
   -4.5012   -7.0750   -0.5876 C   0  0  0  0  0  0  0  0  0  0  0  0
   -4.8891   -7.9303   -1.3631 O   0  0  0  0  0  0  0  0  0  0  0  0
   -5.3576   -6.1657    0.2655 C   0  0  1  0  0  0  0  0  0  0  0  0
   -5.0309   -6.3447    1.6734 O   0  0  0  0  0  0  0  0  0  0  0  0
   -3.7008   -6.3921    2.0126 C   0  0  0  0  0  0  0  0  0  0  0  0
   -3.3486   -6.0728    3.3321 C   0  0  0  0  0  0  0  0  0  0  0  0
   -4.3835   -5.9891    4.2921 N   0  0  0  0  0  0  0  0  0  0  0  0
   -5.2839   -4.7221   -0.1852 C   0  0  1  0  0  0  0  0  0  0  0  0
   -5.6619   -4.4717   -1.5473 O   0  0  0  0  0  0  0  0  0  0  0  0
   -5.6899   -3.7458    0.7791 O   0  0  0  0  0  0  0  0  0  0  0  0
   -4.4073   -3.7151    0.4023 C   0  0  0  0  0  0  0  0  0  0  0  0
   -3.3635   -3.8316    1.0279 O   0  0  0  0  0  0  0  0  0  0  0  0
    1.9835   -1.9879    1.4148 C   0  0  0  0  0  0  0  0  0  0  0  0
    1.5064   -1.7904    2.5242 O   0  0  0  0  0  0  0  0  0  0  0  0
    2.0569   -0.9298    0.3349 C   0  0  0  0  0  0  0  0  0  0  0  0
    1.2661   -0.0051    0.3328 O   0  0  0  0  0  0  0  0  0  0  0  0
    3.0331   -1.1542   -0.8051 C   0  0  0  0  0  0  0  0  0  0  0  0
    3.7045   -0.2641   -1.2852 O   0  0  0  0  0  0  0  0  0  0  0  0
  1  2  1  0  0  0  0
  2  3  2  0  0  0  0
  3  4  1  0  0  0  0
  3 53  1  0  0  0  0
  4  5  1  0  0  0  0
  5  6  1  1  0  0  0
  5 49  1  0  0  0  0
  6  7  1  0  0  0  0
  7  8  2  0  0  0  0
  7 12  1  0  0  0  0
  8  9  1  0  0  0  0
  8 26  1  0  0  0  0
  9 10  1  0  0  0  0
 10 11  2  0  0  0  0
 10 22  1  0  0  0  0
 11 12  1  0  0  0  0
 11 13  1  0  0  0  0
 13 14  1  0  0  0  0
 13 20  1  0  0  0  0
 14 15  1  0  0  0  0
 15 16  2  0  0  0  0
 15 17  1  0  0  0  0
 17 18  1  0  0  0  0
 18 19  2  0  0  0  0
 18 20  1  0  0  0  0
 20 21  2  0  0  0  0
 21 22  1  0  0  0  0
 21 23  1  0  0  0  0
 23 24  1  0  0  0  0
 23 25  1  0  0  0  0
 24 25  1  0  0  0  0
 26 27  2  0  0  0  0
 26 32  1  0  0  0  0
 27 28  1  0  0  0  0
 28 29  1  0  0  0  0
 28 30  2  0  0  0  0
 30 31  1  0  0  0  0
 31 32  2  0  0  0  0
 31 42  1  0  0  0  0
 32 33  1  0  0  0  0
 33 34  2  0  0  0  0
 34 35  1  0  0  0  0
 34 41  1  0  0  0  0
 35 36  2  0  0  0  0
 35 37  1  0  0  0  0
 37 38  2  0  0  0  0
 39 37  1  6  0  0  0
 39 40  1  0  0  0  0
 39 44  1  0  0  0  0
 40 41  1  0  0  0  0
 41 42  2  0  0  0  0
 42 43  1  0  0  0  0
 44 45  1  6  0  0  0
 44 46  1  0  0  0  0
 44 47  1  0  0  0  0
 46 47  1  0  0  0  0
 47 48  2  0  0  0  0
 49 50  2  0  0  0  0
 49 51  1  0  0  0  0
 51 52  2  0  0  0  0
 51 53  1  0  0  0  0
 53 54  2  0  0  0  0
M  CHG  3  22   1  28   1  32   1
M  END
$$$$