
 OpenBabel11262012273D

 54 62  0  0  1  0  0  0  0  0999 V2000
    6.7763    2.3367    4.6946 F   0  0  0  0  0  0  0  0  0  0  0  0
    6.2745    3.1957    3.7867 C   0  0  0  0  0  0  0  0  0  0  0  0
    5.0242    3.0700    3.3380 C   0  0  0  0  0  0  0  0  0  0  0  0
    4.2261    2.0272    3.7777 O   0  0  0  0  0  0  0  0  0  0  0  0
    2.8351    2.3364    3.8281 C   0  0  2  0  0  0  0  0  0  0  0  0
    2.0866    1.2291    4.3728 O   0  0  0  0  0  0  0  0  0  0  0  0
    2.4458    0.8256    5.6518 C   0  0  0  0  0  0  0  0  0  0  0  0
    2.3291   -0.4633    6.0311 C   0  0  0  0  0  0  0  0  0  0  0  0
    2.6449   -0.9089    7.3188 O   0  0  0  0  0  0  0  0  0  0  0  0
    3.0209    0.0228    8.2989 C   0  0  0  0  0  0  0  0  0  0  0  0
    3.0807    1.3389    8.0208 C   0  0  0  0  0  0  0  0  0  0  0  0
    2.8576    1.8815    6.6448 C   0  0  0  0  0  0  0  0  0  0  0  0
    3.3837    2.3710    9.0758 C   0  0  3  0  0  0  0  0  0  0  0  0
    2.2039    3.1407    9.2391 O   0  0  0  0  0  0  0  0  0  0  0  0
    2.1919    4.0917   10.2128 C   0  0  0  0  0  0  0  0  0  0  0  0
    1.3301    4.9539   10.2407 O   0  0  0  0  0  0  0  0  0  0  0  0
    3.1791    4.0111   11.1353 O   0  0  0  0  0  0  0  0  0  0  0  0
    3.9245    2.8253   11.3861 C   0  0  3  0  0  0  0  0  0  0  0  0
    3.6569    1.7550   10.3890 C   0  0  0  0  0  0  0  0  0  0  0  0
    3.6318    0.4210   10.5978 C   0  0  0  0  0  0  0  0  0  0  0  0
    3.3064   -0.4468    9.5645 O   0  3  0  0  0  0  0  0  0  0  0  0
    3.9080   -0.2062   11.9111 C   0  0  0  0  0  0  0  0  0  0  0  0
    2.8448   -0.4750   12.8329 O   0  0  0  0  0  0  0  0  0  0  0  0
    3.5094   -1.5646   12.1641 O   0  0  0  0  0  0  0  0  0  0  0  0
    5.3006    3.1123   11.2489 O   0  0  0  0  0  0  0  0  0  0  0  0
    1.7317   -1.4787    5.1304 C   0  0  0  0  0  0  0  0  0  0  0  0
    0.3535   -1.6629    5.2105 C   0  0  0  0  0  0  0  0  0  0  0  0
   -0.2730   -2.5205    4.4003 N   0  3  0  0  0  0  0  0  0  0  0  0
   -1.6061   -2.6756    4.5135 F   0  0  0  0  0  0  0  0  0  0  0  0
    0.3616   -3.2271    3.4901 N   0  0  0  0  0  0  0  0  0  0  0  0
    1.6824   -3.0902    3.3363 C   0  0  0  0  0  0  0  0  0  0  0  0
    2.4331   -2.2100    4.1474 C   0  0  0  0  0  0  0  0  0  0  0  0
    3.8269   -2.1198    3.9325 C   0  0  0  0  0  0  0  0  0  0  0  0
    4.4589   -2.8981    2.9499 C   0  0  0  0  0  0  0  0  0  0  0  0
    5.9129   -2.8312    2.7835 C   0  0  0  0  0  0  0  0  0  0  0  0
    6.5890   -2.2032    3.5839 O   0  0  0  0  0  0  0  0  0  0  0  0
    6.5235   -3.5748    1.6163 C   0  0  0  0  0  0  0  0  0  0  0  0
    7.7356   -3.5946    1.4613 O   0  0  0  0  0  0  0  0  0  0  0  0
    5.5285   -4.1995    0.6632 C   0  0  1  0  0  0  0  0  0  0  0  0
    4.2768   -4.6023    1.2302 O   0  0  0  0  0  0  0  0  0  0  0  0
    3.7232   -3.7685    2.1657 C   0  0  0  0  0  0  0  0  0  0  0  0
    2.3267   -3.8448    2.3350 C   0  0  0  0  0  0  0  0  0  0  0  0
    1.6129   -4.8463    1.6313 N   0  0  0  0  0  0  0  0  0  0  0  0
    5.2762   -3.3113   -0.5095 C   0  0  1  0  0  0  0  0  0  0  0  0
    4.7390   -1.9932   -0.2233 O   0  0  0  0  0  0  0  0  0  0  0  0
    6.2105   -3.3934   -1.5791 O   0  0  0  0  0  0  0  0  0  0  0  0
    4.9656   -3.8347   -1.8432 C   0  0  0  0  0  0  0  0  0  0  0  0
    4.1344   -3.4353   -2.6286 O   0  0  0  0  0  0  0  0  0  0  0  0
    2.3465    2.6533    2.4319 C   0  0  0  0  0  0  0  0  0  0  0  0
    1.4273    2.0922    1.8566 O   0  0  0  0  0  0  0  0  0  0  0  0
    3.1380    3.7828    1.8127 C   0  0  0  0  0  0  0  0  0  0  0  0
    2.6343    4.4730    0.9449 O   0  0  0  0  0  0  0  0  0  0  0  0
    4.5273    4.0766    2.3549 C   0  0  0  0  0  0  0  0  0  0  0  0
    5.1423    5.0833    2.0547 O   0  0  0  0  0  0  0  0  0  0  0  0
  1  2  1  0  0  0  0
  2  3  2  0  0  0  0
  3  4  1  0  0  0  0
  3 53  1  0  0  0  0
  4  5  1  0  0  0  0
  5  6  1  6  0  0  0
  5 49  1  0  0  0  0
  6  7  1  0  0  0  0
  7  8  2  0  0  0  0
  7 12  1  0  0  0  0
  8  9  1  0  0  0  0
  8 26  1  0  0  0  0
  9 10  1  0  0  0  0
 10 11  2  0  0  0  0
 10 21  1  0  0  0  0
 11 12  1  0  0  0  0
 11 13  1  0  0  0  0
 13 14  1  0  0  0  0
 13 19  1  0  0  0  0
 14 15  1  0  0  0  0
 15 16  2  0  0  0  0
 15 17  1  0  0  0  0
 17 18  1  0  0  0  0
 18 19  1  0  0  0  0
 18 25  1  0  0  0  0
 19 20  2  0  0  0  0
 20 21  1  0  0  0  0
 20 22  1  0  0  0  0
 22 23  1  0  0  0  0
 22 24  1  0  0  0  0
 23 24  1  0  0  0  0
 26 27  2  0  0  0  0
 26 32  1  0  0  0  0
 27 28  1  0  0  0  0
 28 29  1  0  0  0  0
 28 30  2  0  0  0  0
 30 31  1  0  0  0  0
 31 32  2  0  0  0  0
 31 42  1  0  0  0  0
 32 33  1  0  0  0  0
 33 34  2  0  0  0  0
 34 35  1  0  0  0  0
 34 41  1  0  0  0  0
 35 36  2  0  0  0  0
 35 37  1  0  0  0  0
 37 38  2  0  0  0  0
 39 37  1  1  0  0  0
 39 40  1  0  0  0  0
 39 44  1  0  0  0  0
 40 41  1  0  0  0  0
 41 42  2  0  0  0  0
 42 43  1  0  0  0  0
 44 45  1  1  0  0  0
 44 46  1  0  0  0  0
 44 47  1  0  0  0  0
 46 47  1  0  0  0  0
 47 48  2  0  0  0  0
 49 50  2  0  0  0  0
 49 51  1  0  0  0  0
 51 52  2  0  0  0  0
 51 53  1  0  0  0  0
 53 54  2  0  0  0  0
M  CHG  2  21   1  28   1
M  END
$$$$