
 OpenBabel11262000353D

 54 62  0  0  1  0  0  0  0  0999 V2000
    3.4545    1.7975   -2.9920 O   0  0  0  0  0  0  0  0  0  0  0  0
    2.0980    1.8311   -3.2022 C   0  0  0  0  0  0  0  0  0  0  0  0
    1.3892    0.7220   -3.4480 C   0  0  0  0  0  0  0  0  0  0  0  0
    2.0335   -0.4943   -3.5175 O   0  0  0  0  0  0  0  0  0  0  0  0
    1.2643   -1.6401   -3.2624 C   0  0  2  0  0  0  0  0  0  0  0  0
    1.9046   -2.8437   -3.8559 O   0  0  0  0  0  0  0  0  0  0  0  0
    2.1262   -2.8801   -5.2351 C   0  0  0  0  0  0  0  0  0  0  0  0
    2.1229   -4.0525   -5.9104 C   0  0  0  0  0  0  0  0  0  0  0  0
    2.3690   -4.1003   -7.3165 O   0  0  0  0  0  0  0  0  0  0  0  0
    2.6283   -2.8982   -8.0521 C   0  0  0  0  0  0  0  0  0  0  0  0
    2.6776   -1.7159   -7.4177 C   0  0  0  0  0  0  0  0  0  0  0  0
    2.4534   -1.5840   -5.9400 C   0  0  0  0  0  0  0  0  0  0  0  0
    2.8957   -0.4077   -8.1326 C   0  0  3  0  0  0  0  0  0  0  0  0
    4.0159    0.2446   -7.5722 O   0  0  0  0  0  0  0  0  0  0  0  0
    4.2656    1.4688   -8.0907 C   0  0  0  0  0  0  0  0  0  0  0  0
    4.8926    2.3539   -7.4309 N   0  0  0  0  0  0  0  0  0  0  0  0
    3.8888    1.6980   -9.3675 O   0  0  0  0  0  0  0  0  0  0  0  0
    3.5595    0.6835  -10.1613 C   0  0  0  0  0  0  0  0  0  0  0  0
    3.5683    0.7232  -11.3896 O   0  0  0  0  0  0  0  0  0  0  0  0
    3.1955   -0.6116   -9.5752 C   0  0  0  0  0  0  0  0  0  0  0  0
    3.1364   -1.8023  -10.2463 C   0  0  0  0  0  0  0  0  0  0  0  0
    2.8167   -2.9700   -9.4456 O   0  3  0  0  0  0  0  0  0  0  0  0
    3.3798   -2.0269  -11.7767 C   0  0  0  0  0  0  0  0  0  0  0  0
    4.3070   -1.1676  -12.6336 N   0  3  0  0  0  0  0  0  0  0  0  0
    3.2409   -0.9552  -12.8652 N   0  3  0  0  0  0  0  0  0  0  0  0
    1.8348   -5.3733   -5.2068 C   0  0  0  0  0  0  0  0  0  0  0  0
    0.5036   -5.8173   -5.0795 C   0  0  0  0  0  0  0  0  0  0  0  0
    0.2335   -6.9894   -4.4875 N   0  3  0  0  0  0  0  0  0  0  0  0
   -1.0443   -7.4185   -4.4088 F   0  0  0  0  0  0  0  0  0  0  0  0
    1.1803   -7.7696   -4.0105 N   0  0  0  0  0  0  0  0  0  0  0  0
    2.4627   -7.3849   -4.1047 C   0  0  0  0  0  0  0  0  0  0  0  0
    2.8354   -6.1709   -4.6830 N   0  3  0  0  0  0  0  0  0  0  0  0
    4.1588   -5.8491   -4.7344 C   0  0  0  0  0  0  0  0  0  0  0  0
    5.1493   -6.7661   -4.3772 C   0  0  0  0  0  0  0  0  0  0  0  0
    6.5263   -6.4830   -4.7476 C   0  0  0  0  0  0  0  0  0  0  0  0
    6.7620   -5.3889   -5.2362 O   0  0  0  0  0  0  0  0  0  0  0  0
    7.5189   -7.6243   -4.6971 C   0  0  0  0  0  0  0  0  0  0  0  0
    8.6949   -7.3945   -4.9178 O   0  0  0  0  0  0  0  0  0  0  0  0
    6.8883   -8.9999   -4.5424 C   0  0  1  0  0  0  0  0  0  0  0  0
    5.7262   -8.9923   -3.6728 O   0  0  0  0  0  0  0  0  0  0  0  0
    4.8173   -7.9956   -3.8689 C   0  0  0  0  0  0  0  0  0  0  0  0
    3.4687   -8.2626   -3.6709 C   0  0  0  0  0  0  0  0  0  0  0  0
    3.1080   -9.4550   -3.1762 F   0  0  0  0  0  0  0  0  0  0  0  0
    6.6004   -9.6249   -5.8976 C   0  0  1  0  0  0  0  0  0  0  0  0
    7.7249   -9.8403   -6.7633 O   0  0  0  0  0  0  0  0  0  0  0  0
    5.5626  -10.6152   -5.9309 O   0  0  0  0  0  0  0  0  0  0  0  0
    5.3329   -9.4873   -6.6093 C   0  0  0  0  0  0  0  0  0  0  0  0
    4.4497   -8.6454   -6.5418 O   0  0  0  0  0  0  0  0  0  0  0  0
   -0.1919   -1.6848   -3.7263 C   0  0  0  0  0  0  0  0  0  0  0  0
   -0.7375   -2.7827   -3.9305 O   0  0  0  0  0  0  0  0  0  0  0  0
   -0.8123   -0.3856   -4.1738 C   0  0  3  0  0  0  0  0  0  0  0  0
   -0.0498    0.8678   -3.8229 C   0  0  0  0  0  0  0  0  0  0  0  0
   -0.5405    1.9786   -4.0089 O   0  0  0  0  0  0  0  0  0  0  0  0
   -0.9598   -0.4622   -5.5402 F   0  0  0  0  0  0  0  0  0  0  0  0
  1  2  1  0  0  0  0
  2  3  2  0  0  0  0
  3  4  1  0  0  0  0
  3 52  1  0  0  0  0
  4  5  1  0  0  0  0
  5  6  1  6  0  0  0
  5 49  1  0  0  0  0
  6  7  1  0  0  0  0
  7  8  2  0  0  0  0
  7 12  1  0  0  0  0
  8  9  1  0  0  0  0
  8 26  1  0  0  0  0
  9 10  1  0  0  0  0
 10 11  2  0  0  0  0
 10 22  1  0  0  0  0
 11 12  1  0  0  0  0
 11 13  1  0  0  0  0
 13 14  1  0  0  0  0
 13 20  1  0  0  0  0
 14 15  1  0  0  0  0
 15 16  2  0  0  0  0
 15 17  1  0  0  0  0
 17 18  1  0  0  0  0
 18 19  2  0  0  0  0
 18 20  1  0  0  0  0
 20 21  2  0  0  0  0
 21 22  1  0  0  0  0
 21 23  1  0  0  0  0
 23 24  1  0  0  0  0
 23 25  1  0  0  0  0
 24 25  3  0  0  0  0
 26 27  2  0  0  0  0
 26 32  1  0  0  0  0
 27 28  1  0  0  0  0
 28 29  1  0  0  0  0
 28 30  2  0  0  0  0
 30 31  1  0  0  0  0
 31 32  2  0  0  0  0
 31 42  1  0  0  0  0
 32 33  1  0  0  0  0
 33 34  2  0  0  0  0
 34 35  1  0  0  0  0
 34 41  1  0  0  0  0
 35 36  2  0  0  0  0
 35 37  1  0  0  0  0
 37 38  2  0  0  0  0
 39 37  1  6  0  0  0
 39 40  1  0  0  0  0
 39 44  1  0  0  0  0
 40 41  1  0  0  0  0
 41 42  2  0  0  0  0
 42 43  1  0  0  0  0
 44 45  1  6  0  0  0
 44 46  1  0  0  0  0
 44 47  1  0  0  0  0
 46 47  1  0  0  0  0
 47 48  2  0  0  0  0
 49 50  2  0  0  0  0
 49 51  1  0  0  0  0
 51 52  1  0  0  0  0
 51 54  1  0  0  0  0
 52 53  2  0  0  0  0
M  CHG  5  22   1  24   1  25   1  28   1  32   1
M  END
$$$$