
 OpenBabel11222002163D

 54 62  0  0  1  0  0  0  0  0999 V2000
    1.3476    5.6059   -2.0402 O   0  0  0  0  0  0  0  0  0  0  0  0
    1.5958    4.7234   -1.0200 C   0  0  0  0  0  0  0  0  0  0  0  0
    1.6472    3.3933   -1.1728 C   0  0  0  0  0  0  0  0  0  0  0  0
    1.4098    2.7656   -2.3766 O   0  0  0  0  0  0  0  0  0  0  0  0
    2.4688    1.8799   -2.7565 C   0  0  2  0  0  0  0  0  0  0  0  0
    2.3342    1.4272   -4.1339 O   0  0  0  0  0  0  0  0  0  0  0  0
    2.2526    2.3549   -5.1751 C   0  0  0  0  0  0  0  0  0  0  0  0
    2.1888    2.0356   -6.5034 C   0  0  0  0  0  0  0  0  0  0  0  0
    2.1142    3.0595   -7.4775 O   0  0  0  0  0  0  0  0  0  0  0  0
    2.2046    4.4029   -7.1420 C   0  0  0  0  0  0  0  0  0  0  0  0
    2.2572    4.7754   -5.8599 C   0  0  0  0  0  0  0  0  0  0  0  0
    2.2092    3.7944   -4.7584 C   0  0  0  0  0  0  0  0  0  0  0  0
    2.3827    6.1904   -5.4169 C   0  0  3  0  0  0  0  0  0  0  0  0
    3.6567    6.3046   -4.7955 O   0  0  0  0  0  0  0  0  0  0  0  0
    4.0059    7.5303   -4.3737 C   0  0  0  0  0  0  0  0  0  0  0  0
    4.9730    7.6645   -3.5503 N   0  0  0  0  0  0  0  0  0  0  0  0
    3.3317    8.5888   -4.8516 O   0  0  0  0  0  0  0  0  0  0  0  0
    2.5185    8.5117   -6.0240 C   0  0  3  0  0  0  0  0  0  0  0  0
    2.4044    7.1220   -6.5583 C   0  0  0  0  0  0  0  0  0  0  0  0
    2.3727    6.6990   -7.8465 C   0  0  0  0  0  0  0  0  0  0  0  0
    2.2623    5.3374   -8.1545 O   0  3  0  0  0  0  0  0  0  0  0  0
    2.4388    7.6403   -8.9827 C   0  0  0  0  0  0  0  0  0  0  0  0
    1.8009    7.3450  -10.2311 O   0  0  0  0  0  0  0  0  0  0  0  0
    1.2904    8.3965   -9.3865 O   0  0  0  0  0  0  0  0  0  0  0  0
    1.2101    8.9099   -5.6671 O   0  0  0  0  0  0  0  0  0  0  0  0
    2.2007    0.6474   -7.1285 C   0  0  0  0  0  0  0  0  0  0  0  0
    2.2384   -0.4866   -6.3057 C   0  0  0  0  0  0  0  0  0  0  0  0
    2.3451   -1.7406   -6.8631 C   0  0  0  0  0  0  0  0  0  0  0  0
    2.4507   -2.7956   -6.0466 F   0  0  0  0  0  0  0  0  0  0  0  0
    2.3727   -1.9673   -8.1793 N   0  0  0  0  0  0  0  0  0  0  0  0
    2.2588   -0.9102   -8.9987 C   0  0  0  0  0  0  0  0  0  0  0  0
    2.1832    0.4353   -8.5427 C   0  0  0  0  0  0  0  0  0  0  0  0
    2.0976    1.4476   -9.4462 N   0  0  0  0  0  0  0  0  0  0  0  0
    2.0186    1.1528  -10.7751 C   0  0  0  0  0  0  0  0  0  0  0  0
    1.9657    2.3077  -11.6833 C   0  0  0  0  0  0  0  0  0  0  0  0
    2.0232    3.4604  -11.2613 O   0  0  0  0  0  0  0  0  0  0  0  0
    1.9135    1.9806  -13.1656 C   0  0  0  0  0  0  0  0  0  0  0  0
    2.2163    2.8297  -13.9925 O   0  0  0  0  0  0  0  0  0  0  0  0
    1.4673    0.5709  -13.5056 C   0  0  1  0  0  0  0  0  0  0  0  0
    1.9584   -0.4405  -12.6217 O   0  0  0  0  0  0  0  0  0  0  0  0
    2.0485   -0.1197  -11.2962 C   0  0  0  0  0  0  0  0  0  0  0  0
    2.2369   -1.1625  -10.3859 C   0  0  0  0  0  0  0  0  0  0  0  0
    2.1861   -2.5048  -10.8542 N   0  0  0  0  0  0  0  0  0  0  0  0
   -0.0213    0.4815  -13.6363 C   0  0  1  0  0  0  0  0  0  0  0  0
   -0.7916    0.8682  -12.4713 O   0  0  0  0  0  0  0  0  0  0  0  0
   -0.5302    0.9332  -14.8892 O   0  0  0  0  0  0  0  0  0  0  0  0
   -0.7157   -0.3761  -14.6066 C   0  0  0  0  0  0  0  0  0  0  0  0
   -1.7434   -0.9946  -14.4998 O   0  0  0  0  0  0  0  0  0  0  0  0
    2.4848    0.7116   -1.7717 C   0  0  0  0  0  0  0  0  0  0  0  0
    2.7063   -0.4526   -2.0721 O   0  0  0  0  0  0  0  0  0  0  0  0
    2.2716    1.1251   -0.3200 C   0  0  0  0  0  0  0  0  0  0  0  0
    2.4081    0.3107    0.5794 O   0  0  0  0  0  0  0  0  0  0  0  0
    1.9297    2.5631    0.0214 C   0  0  0  0  0  0  0  0  0  0  0  0
    1.9234    2.9920    1.1617 O   0  0  0  0  0  0  0  0  0  0  0  0
  1  2  1  0  0  0  0
  2  3  2  0  0  0  0
  3  4  1  0  0  0  0
  3 53  1  0  0  0  0
  4  5  1  0  0  0  0
  5  6  1  6  0  0  0
  5 49  1  0  0  0  0
  6  7  1  0  0  0  0
  7  8  2  0  0  0  0
  7 12  1  0  0  0  0
  8  9  1  0  0  0  0
  8 26  1  0  0  0  0
  9 10  1  0  0  0  0
 10 11  2  0  0  0  0
 10 21  1  0  0  0  0
 11 12  1  0  0  0  0
 11 13  1  0  0  0  0
 13 14  1  0  0  0  0
 13 19  1  0  0  0  0
 14 15  1  0  0  0  0
 15 16  2  0  0  0  0
 15 17  1  0  0  0  0
 17 18  1  0  0  0  0
 18 19  1  0  0  0  0
 18 25  1  0  0  0  0
 19 20  2  0  0  0  0
 20 21  1  0  0  0  0
 20 22  1  0  0  0  0
 22 23  1  0  0  0  0
 22 24  1  0  0  0  0
 23 24  1  0  0  0  0
 26 27  2  0  0  0  0
 26 32  1  0  0  0  0
 27 28  1  0  0  0  0
 28 29  1  0  0  0  0
 28 30  2  0  0  0  0
 30 31  1  0  0  0  0
 31 32  2  0  0  0  0
 31 42  1  0  0  0  0
 32 33  1  0  0  0  0
 33 34  2  0  0  0  0
 34 35  1  0  0  0  0
 34 41  1  0  0  0  0
 35 36  2  0  0  0  0
 35 37  1  0  0  0  0
 37 38  2  0  0  0  0
 39 37  1  1  0  0  0
 39 40  1  0  0  0  0
 39 44  1  0  0  0  0
 40 41  1  0  0  0  0
 41 42  2  0  0  0  0
 42 43  1  0  0  0  0
 44 45  1  1  0  0  0
 44 46  1  0  0  0  0
 44 47  1  0  0  0  0
 46 47  1  0  0  0  0
 47 48  2  0  0  0  0
 49 50  2  0  0  0  0
 49 51  1  0  0  0  0
 51 52  2  0  0  0  0
 51 53  1  0  0  0  0
 53 54  2  0  0  0  0
M  CHG  1  21   1
M  END
$$$$