
 OpenBabel11212023333D

 54 62  0  0  1  0  0  0  0  0999 V2000
    7.0231   -2.5894    4.8015 O   0  0  0  0  0  0  0  0  0  0  0  0
    6.7976   -1.2491    4.5950 C   0  0  0  0  0  0  0  0  0  0  0  0
    5.6338   -0.7757    4.1356 C   0  0  0  0  0  0  0  0  0  0  0  0
    4.6122   -1.6483    3.8039 O   0  0  0  0  0  0  0  0  0  0  0  0
    3.3354   -1.1734    4.2046 C   0  0  2  0  0  0  0  0  0  0  0  0
    2.3241   -2.1638    3.9402 O   0  0  0  0  0  0  0  0  0  0  0  0
    2.4610   -3.4092    4.5299 C   0  0  0  0  0  0  0  0  0  0  0  0
    1.9710   -4.5244    3.9360 C   0  0  0  0  0  0  0  0  0  0  0  0
    2.1225   -5.7873    4.5387 O   0  0  0  0  0  0  0  0  0  0  0  0
    2.8747   -5.9341    5.7128 C   0  0  0  0  0  0  0  0  0  0  0  0
    3.3220   -4.8571    6.3859 C   0  0  0  0  0  0  0  0  0  0  0  0
    3.1091   -3.4651    5.8903 C   0  0  0  0  0  0  0  0  0  0  0  0
    4.1123   -4.9709    7.6617 C   0  0  3  0  0  0  0  0  0  0  0  0
    3.3908   -4.3229    8.6880 O   0  0  0  0  0  0  0  0  0  0  0  0
    3.9322   -4.3748    9.9401 C   0  0  0  0  0  0  0  0  0  0  0  0
    3.6367   -3.5396   10.7799 O   0  0  0  0  0  0  0  0  0  0  0  0
    4.7969   -5.3978   10.1975 O   0  0  0  0  0  0  0  0  0  0  0  0
    4.9216   -6.4431    9.3705 C   0  0  0  0  0  0  0  0  0  0  0  0
    5.6433   -7.4419    9.7264 N   0  0  0  0  0  0  0  0  0  0  0  0
    4.2715   -6.3706    8.0709 C   0  0  0  0  0  0  0  0  0  0  0  0
    3.8341   -7.4268    7.3521 C   0  0  0  0  0  0  0  0  0  0  0  0
    3.1444   -7.2150    6.1607 O   0  3  0  0  0  0  0  0  0  0  0  0
    3.9727   -8.8443    7.7662 C   0  0  0  0  0  0  0  0  0  0  0  0
    2.9298   -9.4979    8.5003 O   0  0  0  0  0  0  0  0  0  0  0  0
    3.1747   -9.8594    7.1281 O   0  0  0  0  0  0  0  0  0  0  0  0
    1.2155   -4.5097    2.6221 C   0  0  0  0  0  0  0  0  0  0  0  0
    0.4403   -3.3872    2.2986 C   0  0  0  0  0  0  0  0  0  0  0  0
   -0.2303   -3.3000    1.1462 N   0  3  0  0  0  0  0  0  0  0  0  0
   -0.9099   -2.1701    0.8678 F   0  0  0  0  0  0  0  0  0  0  0  0
   -0.2685   -4.2833    0.2744 N   0  0  0  0  0  0  0  0  0  0  0  0
    0.3947   -5.4118    0.5212 C   0  0  0  0  0  0  0  0  0  0  0  0
    1.1845   -5.5801    1.6813 C   0  0  0  0  0  0  0  0  0  0  0  0
    1.8695   -6.8136    1.8089 C   0  0  0  0  0  0  0  0  0  0  0  0
    1.7119   -7.8568    0.8803 C   0  0  0  0  0  0  0  0  0  0  0  0
    2.3225   -9.1586    1.1472 C   0  0  0  0  0  0  0  0  0  0  0  0
    2.8017   -9.3758    2.2531 O   0  0  0  0  0  0  0  0  0  0  0  0
    2.2757  -10.1931    0.0424 C   0  0  0  0  0  0  0  0  0  0  0  0
    2.7790  -11.2925    0.2189 O   0  0  0  0  0  0  0  0  0  0  0  0
    1.6428   -9.7229   -1.2558 C   0  0  1  0  0  0  0  0  0  0  0  0
    0.6777   -8.6674   -1.1506 O   0  0  0  0  0  0  0  0  0  0  0  0
    0.9217   -7.6894   -0.2337 C   0  0  0  0  0  0  0  0  0  0  0  0
    0.2843   -6.4603   -0.3989 C   0  0  0  0  0  0  0  0  0  0  0  0
   -0.4882   -6.2803   -1.4825 F   0  0  0  0  0  0  0  0  0  0  0  0
    2.6937   -9.3333   -2.2482 C   0  0  1  0  0  0  0  0  0  0  0  0
    3.5641   -8.2365   -1.8536 O   0  0  0  0  0  0  0  0  0  0  0  0
    3.3061  -10.3980   -2.9514 O   0  0  0  0  0  0  0  0  0  0  0  0
    2.5612   -9.5428   -3.6835 C   0  0  0  0  0  0  0  0  0  0  0  0
    2.8878   -8.7980   -4.5790 O   0  0  0  0  0  0  0  0  0  0  0  0
    2.9972    0.0565    3.3930 C   0  0  0  0  0  0  0  0  0  0  0  0
    1.9847    0.1889    2.7192 O   0  0  0  0  0  0  0  0  0  0  0  0
    4.0726    1.1142    3.4989 C   0  0  0  0  0  0  0  0  0  0  0  0
    3.8043    2.2748    3.2448 O   0  0  0  0  0  0  0  0  0  0  0  0
    5.4576    0.7019    3.9830 C   0  0  0  0  0  0  0  0  0  0  0  0
    6.3140    1.5168    4.2734 O   0  0  0  0  0  0  0  0  0  0  0  0
  1  2  1  0  0  0  0
  2  3  2  0  0  0  0
  3  4  1  0  0  0  0
  3 53  1  0  0  0  0
  4  5  1  0  0  0  0
  5  6  1  6  0  0  0
  5 49  1  0  0  0  0
  6  7  1  0  0  0  0
  7  8  2  0  0  0  0
  7 12  1  0  0  0  0
  8  9  1  0  0  0  0
  8 26  1  0  0  0  0
  9 10  1  0  0  0  0
 10 11  2  0  0  0  0
 10 22  1  0  0  0  0
 11 12  1  0  0  0  0
 11 13  1  0  0  0  0
 13 14  1  0  0  0  0
 13 20  1  0  0  0  0
 14 15  1  0  0  0  0
 15 16  2  0  0  0  0
 15 17  1  0  0  0  0
 17 18  1  0  0  0  0
 18 19  2  0  0  0  0
 18 20  1  0  0  0  0
 20 21  2  0  0  0  0
 21 22  1  0  0  0  0
 21 23  1  0  0  0  0
 23 24  1  0  0  0  0
 23 25  1  0  0  0  0
 24 25  1  0  0  0  0
 26 27  2  0  0  0  0
 26 32  1  0  0  0  0
 27 28  1  0  0  0  0
 28 29  1  0  0  0  0
 28 30  2  0  0  0  0
 30 31  1  0  0  0  0
 31 32  2  0  0  0  0
 31 42  1  0  0  0  0
 32 33  1  0  0  0  0
 33 34  2  0  0  0  0
 34 35  1  0  0  0  0
 34 41  1  0  0  0  0
 35 36  2  0  0  0  0
 35 37  1  0  0  0  0
 37 38  2  0  0  0  0
 39 37  1  1  0  0  0
 39 40  1  0  0  0  0
 39 44  1  0  0  0  0
 40 41  1  0  0  0  0
 41 42  2  0  0  0  0
 42 43  1  0  0  0  0
 44 45  1  1  0  0  0
 44 46  1  0  0  0  0
 44 47  1  0  0  0  0
 46 47  1  0  0  0  0
 47 48  2  0  0  0  0
 49 50  2  0  0  0  0
 49 51  1  0  0  0  0
 51 52  2  0  0  0  0
 51 53  1  0  0  0  0
 53 54  2  0  0  0  0
M  CHG  2  22   1  28   1
M  END
$$$$