
 OpenBabel11222002053D

 54 62  0  0  1  0  0  0  0  0999 V2000
    0.0251    2.0852   -4.6094 O   0  0  0  0  0  0  0  0  0  0  0  0
    0.4809    1.9752   -3.3208 C   0  0  0  0  0  0  0  0  0  0  0  0
    0.9945    0.8433   -2.8250 C   0  0  0  0  0  0  0  0  0  0  0  0
    1.0301   -0.3221   -3.5645 O   0  0  0  0  0  0  0  0  0  0  0  0
    2.2094   -1.0954   -3.3836 C   0  0  2  0  0  0  0  0  0  0  0  0
    2.1829   -2.2885   -4.2188 O   0  0  0  0  0  0  0  0  0  0  0  0
    2.1357   -2.1489   -5.6012 C   0  0  0  0  0  0  0  0  0  0  0  0
    2.1892   -3.2276   -6.4160 C   0  0  0  0  0  0  0  0  0  0  0  0
    2.2040   -3.1272   -7.8152 O   0  0  0  0  0  0  0  0  0  0  0  0
    2.3395   -1.8651   -8.4116 C   0  0  0  0  0  0  0  0  0  0  0  0
    2.2743   -0.7460   -7.6694 C   0  0  0  0  0  0  0  0  0  0  0  0
    2.0061   -0.7723   -6.1977 C   0  0  0  0  0  0  0  0  0  0  0  0
    2.4858    0.6213   -8.2503 C   0  0  3  0  0  0  0  0  0  0  0  0
    3.6759    1.1256   -7.6553 O   0  0  0  0  0  0  0  0  0  0  0  0
    4.1729    2.2781   -8.1433 C   0  0  0  0  0  0  0  0  0  0  0  0
    5.1065    2.8822   -7.5170 N   0  0  0  0  0  0  0  0  0  0  0  0
    3.6943    2.7488   -9.3063 O   0  0  0  0  0  0  0  0  0  0  0  0
    2.9349    1.9551  -10.2133 C   0  0  3  0  0  0  0  0  0  0  0  0
    2.7326    0.5696   -9.7080 C   0  0  0  0  0  0  0  0  0  0  0  0
    2.7717   -0.5842  -10.4100 C   0  0  0  0  0  0  0  0  0  0  0  0
    2.5630   -1.8017   -9.7725 O   0  3  0  0  0  0  0  0  0  0  0  0
    3.0028   -0.6389  -11.8719 C   0  0  0  0  0  0  0  0  0  0  0  0
    2.4684   -1.7197  -12.6537 O   0  0  0  0  0  0  0  0  0  0  0  0
    1.9429   -0.3856  -12.8006 O   0  0  0  0  0  0  0  0  0  0  0  0
    1.6426    2.5062  -10.3445 O   0  0  0  0  0  0  0  0  0  0  0  0
    2.2167   -4.6175   -5.9009 C   0  0  0  0  0  0  0  0  0  0  0  0
    3.4479   -5.2099   -5.6286 C   0  0  0  0  0  0  0  0  0  0  0  0
    3.5163   -6.4595   -5.1539 N   0  3  0  0  0  0  0  0  0  0  0  0
    4.7234   -7.0130   -4.9274 F   0  0  0  0  0  0  0  0  0  0  0  0
    2.4439   -7.1834   -4.9073 N   0  0  0  0  0  0  0  0  0  0  0  0
    1.2302   -6.6644   -5.1111 C   0  0  0  0  0  0  0  0  0  0  0  0
    1.0485   -5.3673   -5.6323 C   0  0  0  0  0  0  0  0  0  0  0  0
   -0.2765   -4.8984   -5.8381 C   0  0  0  0  0  0  0  0  0  0  0  0
   -1.3827   -5.6865   -5.4908 C   0  0  0  0  0  0  0  0  0  0  0  0
   -2.7673   -5.2289   -5.6795 C   0  0  0  0  0  0  0  0  0  0  0  0
   -3.1479   -4.2811   -6.4770 N   0  0  0  0  0  0  0  0  0  0  0  0
   -3.8326   -5.9640   -4.9078 C   0  0  0  0  0  0  0  0  0  0  0  0
   -5.0825   -5.6844   -5.1085 N   0  0  0  0  0  0  0  0  0  0  0  0
   -3.3403   -7.0040   -3.9325 C   0  0  1  0  0  0  0  0  0  0  0  0
   -2.2075   -7.7264   -4.4588 O   0  0  0  0  0  0  0  0  0  0  0  0
   -1.1880   -6.9369   -4.9181 C   0  0  0  0  0  0  0  0  0  0  0  0
    0.1102   -7.4215   -4.7777 C   0  0  0  0  0  0  0  0  0  0  0  0
    0.2949   -8.6487   -4.2642 F   0  0  0  0  0  0  0  0  0  0  0  0
   -3.0122   -6.4091   -2.5841 C   0  0  1  0  0  0  0  0  0  0  0  0
   -1.9547   -5.4212   -2.5250 O   0  0  0  0  0  0  0  0  0  0  0  0
   -4.1334   -6.1515   -1.7377 O   0  0  0  0  0  0  0  0  0  0  0  0
   -3.2464   -7.1853   -1.3040 C   0  0  3  0  0  0  0  0  0  0  0  0
   -2.3984   -6.8159   -0.2010 O   0  0  0  0  0  0  0  0  0  0  0  0
    2.3842   -1.5450   -1.9440 C   0  0  0  0  0  0  0  0  0  0  0  0
    2.8990   -2.6055   -1.6118 O   0  0  0  0  0  0  0  0  0  0  0  0
    1.9336   -0.5084   -0.9284 C   0  0  0  0  0  0  0  0  0  0  0  0
    1.9115   -0.7855    0.2544 O   0  0  0  0  0  0  0  0  0  0  0  0
    1.4972    0.8571   -1.4240 C   0  0  0  0  0  0  0  0  0  0  0  0
    1.6279    1.8583   -0.7500 O   0  0  0  0  0  0  0  0  0  0  0  0
  1  2  1  0  0  0  0
  2  3  2  0  0  0  0
  3  4  1  0  0  0  0
  3 53  1  0  0  0  0
  4  5  1  0  0  0  0
  5  6  1  6  0  0  0
  5 49  1  0  0  0  0
  6  7  1  0  0  0  0
  7  8  2  0  0  0  0
  7 12  1  0  0  0  0
  8  9  1  0  0  0  0
  8 26  1  0  0  0  0
  9 10  1  0  0  0  0
 10 11  2  0  0  0  0
 10 21  1  0  0  0  0
 11 12  1  0  0  0  0
 11 13  1  0  0  0  0
 13 14  1  0  0  0  0
 13 19  1  0  0  0  0
 14 15  1  0  0  0  0
 15 16  2  0  0  0  0
 15 17  1  0  0  0  0
 17 18  1  0  0  0  0
 18 19  1  0  0  0  0
 18 25  1  0  0  0  0
 19 20  2  0  0  0  0
 20 21  1  0  0  0  0
 20 22  1  0  0  0  0
 22 23  1  0  0  0  0
 22 24  1  0  0  0  0
 23 24  1  0  0  0  0
 26 27  2  0  0  0  0
 26 32  1  0  0  0  0
 27 28  1  0  0  0  0
 28 29  1  0  0  0  0
 28 30  2  0  0  0  0
 30 31  1  0  0  0  0
 31 32  2  0  0  0  0
 31 42  1  0  0  0  0
 32 33  1  0  0  0  0
 33 34  2  0  0  0  0
 34 35  1  0  0  0  0
 34 41  1  0  0  0  0
 35 36  2  0  0  0  0
 35 37  1  0  0  0  0
 37 38  2  0  0  0  0
 39 37  1  6  0  0  0
 39 40  1  0  0  0  0
 39 44  1  0  0  0  0
 40 41  1  0  0  0  0
 41 42  2  0  0  0  0
 42 43  1  0  0  0  0
 44 45  1  1  0  0  0
 44 46  1  0  0  0  0
 44 47  1  0  0  0  0
 46 47  1  0  0  0  0
 47 48  1  0  0  0  0
 49 50  2  0  0  0  0
 49 51  1  0  0  0  0
 51 52  2  0  0  0  0
 51 53  1  0  0  0  0
 53 54  2  0  0  0  0
M  CHG  2  21   1  28   1
M  END
$$$$