
 OpenBabel11212001463D

 53 61  0  0  1  0  0  0  0  0999 V2000
   -2.7059   -1.6555   -4.4681 O   0  0  0  0  0  0  0  0  0  0  0  0
   -2.1785   -1.6300   -3.2038 C   0  0  0  0  0  0  0  0  0  0  0  0
   -0.8597   -1.5995   -2.9700 C   0  0  0  0  0  0  0  0  0  0  0  0
    0.0287   -1.5959   -4.0299 O   0  0  0  0  0  0  0  0  0  0  0  0
    1.4249   -1.7556   -3.7990 C   0  0  2  0  0  0  0  0  0  0  0  0
    2.0283   -2.5653   -4.8206 O   0  0  0  0  0  0  0  0  0  0  0  0
    1.9759   -2.1180   -6.1396 C   0  0  0  0  0  0  0  0  0  0  0  0
    1.9559   -2.9964   -7.1671 C   0  0  0  0  0  0  0  0  0  0  0  0
    1.9805   -2.6177   -8.5037 O   0  0  0  0  0  0  0  0  0  0  0  0
    2.1999   -1.2889   -8.8236 C   0  0  0  0  0  0  0  0  0  0  0  0
    2.2769   -0.3304   -7.8843 C   0  0  0  0  0  0  0  0  0  0  0  0
    2.0782   -0.6363   -6.4267 C   0  0  0  0  0  0  0  0  0  0  0  0
    2.5548    1.1013   -8.2812 C   0  0  3  0  0  0  0  0  0  0  0  0
    3.7774    1.4853   -7.6550 O   0  0  0  0  0  0  0  0  0  0  0  0
    4.3989    2.6383   -8.0047 C   0  0  0  0  0  0  0  0  0  0  0  0
    5.3237    3.0850   -7.3388 O   0  0  0  0  0  0  0  0  0  0  0  0
    3.9729    3.2656   -9.1270 O   0  0  0  0  0  0  0  0  0  0  0  0
    3.0101    2.7287  -10.0282 C   0  0  3  0  0  0  0  0  0  0  0  0
    2.7100    1.3107   -9.7471 C   0  0  0  0  0  0  0  0  0  0  0  0
    2.5938    0.2982  -10.6355 C   0  0  0  0  0  0  0  0  0  0  0  0
    2.3535   -0.9793  -10.1529 N   0  0  0  0  0  0  0  0  0  0  0  0
    2.7070    0.4360  -12.1057 C   0  0  0  0  0  0  0  0  0  0  0  0
    1.6266    0.0689  -12.9808 O   0  0  0  0  0  0  0  0  0  0  0  0
    2.0048    1.4512  -12.8425 O   0  0  0  0  0  0  0  0  0  0  0  0
    1.8081    3.4670   -9.8961 O   0  0  0  0  0  0  0  0  0  0  0  0
    1.9799   -4.4545   -6.9739 C   0  0  0  0  0  0  0  0  0  0  0  0
    3.2176   -5.0765   -6.9223 C   0  0  0  0  0  0  0  0  0  0  0  0
    3.3583   -6.3937   -6.7098 N   0  0  0  0  0  0  0  0  0  0  0  0
    2.2441   -7.1548   -6.4972 N   0  0  0  0  0  0  0  0  0  0  0  0
    1.0077   -6.6222   -6.5388 C   0  0  0  0  0  0  0  0  0  0  0  0
    0.8244   -5.2516   -6.8195 C   0  0  0  0  0  0  0  0  0  0  0  0
   -0.4939   -4.7479   -6.9459 C   0  0  0  0  0  0  0  0  0  0  0  0
   -1.6040   -5.5759   -6.7482 C   0  0  0  0  0  0  0  0  0  0  0  0
   -2.9624   -5.0661   -6.9781 C   0  0  0  0  0  0  0  0  0  0  0  0
   -3.1771   -3.9465   -7.4131 O   0  0  0  0  0  0  0  0  0  0  0  0
   -4.0973   -6.0216   -6.6905 C   0  0  0  0  0  0  0  0  0  0  0  0
   -5.2229   -5.8232   -7.1254 O   0  0  0  0  0  0  0  0  0  0  0  0
   -3.7230   -7.1758   -5.7924 C   0  0  1  0  0  0  0  0  0  0  0  0
   -2.4456   -7.7658   -6.0667 O   0  0  0  0  0  0  0  0  0  0  0  0
   -1.4287   -6.8969   -6.3682 C   0  0  0  0  0  0  0  0  0  0  0  0
   -0.1281   -7.4088   -6.2984 C   0  0  0  0  0  0  0  0  0  0  0  0
    0.0349   -8.7389   -5.9721 O   0  0  0  0  0  0  0  0  0  0  0  0
   -3.8338   -6.7866   -4.3511 C   0  0  1  0  0  0  0  0  0  0  0  0
   -3.0174   -5.6732   -3.9151 O   0  0  0  0  0  0  0  0  0  0  0  0
   -5.1645   -6.8159   -3.8322 O   0  0  0  0  0  0  0  0  0  0  0  0
   -4.2901   -7.6887   -3.2937 C   0  0  0  0  0  0  0  0  0  0  0  0
   -3.9179   -7.7990   -2.1482 O   0  0  0  0  0  0  0  0  0  0  0  0
    1.7511   -2.3318   -2.4075 C   0  0  0  0  0  0  0  0  0  0  0  0
    2.4909   -3.2904   -2.1958 O   0  0  0  0  0  0  0  0  0  0  0  0
    1.0690   -1.5635   -1.2877 C   0  0  3  0  0  0  0  0  0  0  0  0
   -0.4294   -1.6065   -1.5305 C   0  0  0  0  0  0  0  0  0  0  0  0
   -1.2486   -1.6437   -0.6137 O   0  0  0  0  0  0  0  0  0  0  0  0
    1.4518   -1.9639    0.0143 O   0  0  0  0  0  0  0  0  0  0  0  0
  1  2  1  0  0  0  0
  2  3  2  0  0  0  0
  3  4  1  0  0  0  0
  3 51  1  0  0  0  0
  4  5  1  0  0  0  0
  5  6  1  6  0  0  0
  5 48  1  0  0  0  0
  6  7  1  0  0  0  0
  7  8  2  0  0  0  0
  7 12  1  0  0  0  0
  8  9  1  0  0  0  0
  8 26  1  0  0  0  0
  9 10  1  0  0  0  0
 10 11  2  0  0  0  0
 10 21  1  0  0  0  0
 11 12  1  0  0  0  0
 11 13  1  0  0  0  0
 13 14  1  0  0  0  0
 13 19  1  0  0  0  0
 14 15  1  0  0  0  0
 15 16  2  0  0  0  0
 15 17  1  0  0  0  0
 17 18  1  0  0  0  0
 18 19  1  0  0  0  0
 18 25  1  0  0  0  0
 19 20  2  0  0  0  0
 20 21  1  0  0  0  0
 20 22  1  0  0  0  0
 22 23  1  0  0  0  0
 22 24  1  0  0  0  0
 23 24  1  0  0  0  0
 26 27  2  0  0  0  0
 26 31  1  0  0  0  0
 27 28  1  0  0  0  0
 28 29  2  0  0  0  0
 29 30  1  0  0  0  0
 30 31  2  0  0  0  0
 30 41  1  0  0  0  0
 31 32  1  0  0  0  0
 32 33  2  0  0  0  0
 33 34  1  0  0  0  0
 33 40  1  0  0  0  0
 34 35  2  0  0  0  0
 34 36  1  0  0  0  0
 36 37  2  0  0  0  0
 38 36  1  6  0  0  0
 38 39  1  0  0  0  0
 38 43  1  0  0  0  0
 39 40  1  0  0  0  0
 40 41  2  0  0  0  0
 41 42  1  0  0  0  0
 43 44  1  1  0  0  0
 43 45  1  0  0  0  0
 43 46  1  0  0  0  0
 45 46  1  0  0  0  0
 46 47  2  0  0  0  0
 48 49  2  0  0  0  0
 48 50  1  0  0  0  0
 50 51  1  0  0  0  0
 50 53  1  0  0  0  0
 51 52  2  0  0  0  0
M  END
$$$$