
 OpenBabel11232002543D

 53 61  0  0  1  0  0  0  0  0999 V2000
    7.1844   -3.1269    3.1850 O   0  0  0  0  0  0  0  0  0  0  0  0
    7.0133   -1.7658    3.2671 C   0  0  0  0  0  0  0  0  0  0  0  0
    5.8040   -1.1949    3.3126 C   0  0  0  0  0  0  0  0  0  0  0  0
    4.6703   -1.9883    3.2367 O   0  0  0  0  0  0  0  0  0  0  0  0
    3.5268   -1.4757    3.9035 C   0  0  2  0  0  0  0  0  0  0  0  0
    2.4116   -2.3724    3.7367 O   0  0  0  0  0  0  0  0  0  0  0  0
    2.5348   -3.6383    4.2950 C   0  0  0  0  0  0  0  0  0  0  0  0
    1.8993   -4.7120    3.7652 C   0  0  0  0  0  0  0  0  0  0  0  0
    2.0405   -5.9954    4.3245 O   0  0  0  0  0  0  0  0  0  0  0  0
    2.8079   -6.1804    5.4872 C   0  0  0  0  0  0  0  0  0  0  0  0
    3.3768   -5.1368    6.1153 C   0  0  0  0  0  0  0  0  0  0  0  0
    3.3252   -3.7516    5.5703 C   0  0  0  0  0  0  0  0  0  0  0  0
    4.1147   -5.2737    7.4150 C   0  0  3  0  0  0  0  0  0  0  0  0
    3.3453   -4.5943    8.3903 O   0  0  0  0  0  0  0  0  0  0  0  0
    3.8268   -4.5828    9.6619 C   0  0  0  0  0  0  0  0  0  0  0  0
    3.4595   -3.7500   10.4726 O   0  0  0  0  0  0  0  0  0  0  0  0
    4.7358   -5.5479    9.9471 O   0  0  0  0  0  0  0  0  0  0  0  0
    4.8980   -6.7544    9.1799 C   0  0  0  0  0  0  0  0  0  0  0  0
    4.2107   -6.6826    7.8555 C   0  0  0  0  0  0  0  0  0  0  0  0
    3.6736   -7.7076    7.1530 C   0  0  0  0  0  0  0  0  0  0  0  0
    2.9569   -7.4593    5.9801 O   0  3  0  0  0  0  0  0  0  0  0  0
    3.7616   -9.1217    7.5672 C   0  0  3  0  0  0  0  0  0  0  0  0
    3.1738  -10.0818    6.6908 N   0  0  0  0  0  0  0  0  0  0  0  0
    2.5455   -9.8283    7.7334 N   0  0  0  0  0  0  0  0  0  0  0  0
    0.9833   -4.5996    2.5722 C   0  0  0  0  0  0  0  0  0  0  0  0
    0.1764   -3.4568    2.4738 C   0  0  0  0  0  0  0  0  0  0  0  0
   -0.6052   -3.2378    1.4134 N   0  3  0  0  0  0  0  0  0  0  0  0
   -1.3172   -2.0951    1.3495 F   0  0  0  0  0  0  0  0  0  0  0  0
   -0.7043   -4.0933    0.4217 N   0  0  0  0  0  0  0  0  0  0  0  0
   -0.0124   -5.2322    0.4570 C   0  0  0  0  0  0  0  0  0  0  0  0
    0.8560   -5.5555    1.5245 C   0  0  0  0  0  0  0  0  0  0  0  0
    1.5214   -6.8061    1.4512 C   0  0  0  0  0  0  0  0  0  0  0  0
    1.3249   -7.6917    0.3736 C   0  0  0  0  0  0  0  0  0  0  0  0
    1.9425   -9.0160    0.3901 C   0  0  0  0  0  0  0  0  0  0  0  0
    2.4278   -9.4406    1.4288 O   0  0  0  0  0  0  0  0  0  0  0  0
    1.9694   -9.7955   -0.9067 C   0  0  0  0  0  0  0  0  0  0  0  0
    2.6922  -10.7759   -1.0147 O   0  0  0  0  0  0  0  0  0  0  0  0
    1.1901   -9.1863   -2.0584 C   0  0  1  0  0  0  0  0  0  0  0  0
    0.2365   -8.1657   -1.7303 O   0  0  0  0  0  0  0  0  0  0  0  0
    0.5020   -7.3508   -0.6749 C   0  0  0  0  0  0  0  0  0  0  0  0
   -0.1632   -6.1270   -0.6072 C   0  0  0  0  0  0  0  0  0  0  0  0
   -0.9972   -5.7919   -1.6049 F   0  0  0  0  0  0  0  0  0  0  0  0
    2.0895   -8.7068   -3.1648 C   0  0  1  0  0  0  0  0  0  0  0  0
    1.4313   -8.0424   -4.2705 O   0  0  0  0  0  0  0  0  0  0  0  0
    3.3071   -8.1105   -2.7224 O   0  0  0  0  0  0  0  0  0  0  0  0
    3.4259   -9.2415   -3.4718 C   0  0  0  0  0  0  0  0  0  0  0  0
    3.9691   -9.3920   -4.5282 O   0  0  0  0  0  0  0  0  0  0  0  0
    3.1723   -0.1279    3.3249 C   0  0  0  0  0  0  0  0  0  0  0  0
    2.1228    0.1610    2.7731 O   0  0  0  0  0  0  0  0  0  0  0  0
    4.3077    0.8375    3.5292 C   0  0  0  0  0  0  0  0  0  0  0  0
    4.0730    1.9621    3.9334 O   0  0  0  0  0  0  0  0  0  0  0  0
    5.7240    0.2988    3.4059 C   0  0  0  0  0  0  0  0  0  0  0  0
    6.6966    1.0311    3.4196 O   0  0  0  0  0  0  0  0  0  0  0  0
  1  2  1  0  0  0  0
  2  3  2  0  0  0  0
  3  4  1  0  0  0  0
  3 52  1  0  0  0  0
  4  5  1  0  0  0  0
  5  6  1  6  0  0  0
  5 48  1  0  0  0  0
  6  7  1  0  0  0  0
  7  8  2  0  0  0  0
  7 12  1  0  0  0  0
  8  9  1  0  0  0  0
  8 25  1  0  0  0  0
  9 10  1  0  0  0  0
 10 11  2  0  0  0  0
 10 21  1  0  0  0  0
 11 12  1  0  0  0  0
 11 13  1  0  0  0  0
 13 14  1  0  0  0  0
 13 19  1  0  0  0  0
 14 15  1  0  0  0  0
 15 16  2  0  0  0  0
 15 17  1  0  0  0  0
 17 18  1  0  0  0  0
 18 19  1  0  0  0  0
 19 20  2  0  0  0  0
 20 21  1  0  0  0  0
 20 22  1  0  0  0  0
 22 23  1  0  0  0  0
 22 24  1  0  0  0  0
 23 24  2  0  0  0  0
 25 26  2  0  0  0  0
 25 31  1  0  0  0  0
 26 27  1  0  0  0  0
 27 28  1  0  0  0  0
 27 29  2  0  0  0  0
 29 30  1  0  0  0  0
 30 31  2  0  0  0  0
 30 41  1  0  0  0  0
 31 32  1  0  0  0  0
 32 33  2  0  0  0  0
 33 34  1  0  0  0  0
 33 40  1  0  0  0  0
 34 35  2  0  0  0  0
 34 36  1  0  0  0  0
 36 37  2  0  0  0  0
 38 36  1  1  0  0  0
 38 39  1  0  0  0  0
 38 43  1  0  0  0  0
 39 40  1  0  0  0  0
 40 41  2  0  0  0  0
 41 42  1  0  0  0  0
 43 44  1  6  0  0  0
 43 45  1  0  0  0  0
 43 46  1  0  0  0  0
 45 46  1  0  0  0  0
 46 47  2  0  0  0  0
 48 49  2  0  0  0  0
 48 50  1  0  0  0  0
 50 51  2  0  0  0  0
 50 52  1  0  0  0  0
 52 53  2  0  0  0  0
M  CHG  2  21   1  27   1
M  END
$$$$