
 OpenBabel09222010593D

 47 54  0  0  1  0  0  0  0  0999 V2000
    6.1611   -7.2483    2.5058 O   0  0  0  0  0  0  0  0  0  0  0  0
    5.5994   -6.2850    3.2991 C   0  0  0  0  0  0  0  0  0  0  0  0
    4.8975   -5.2570    2.8043 C   0  0  0  0  0  0  0  0  0  0  0  0
    4.7565   -5.0741    1.4378 O   0  0  0  0  0  0  0  0  0  0  0  0
    3.4370   -4.7092    1.0442 C   0  0  2  0  0  0  0  0  0  0  0  0
    3.3584   -4.5362   -0.3849 O   0  0  0  0  0  0  0  0  0  0  0  0
    3.5778   -5.6535   -1.1833 C   0  0  0  0  0  0  0  0  0  0  0  0
    4.1205   -5.5487   -2.4159 C   0  0  0  0  0  0  0  0  0  0  0  0
    4.3487   -6.6397   -3.2508 O   0  0  0  0  0  0  0  0  0  0  0  0
    3.8961   -7.8892   -2.8790 C   0  0  0  0  0  0  0  0  0  0  0  0
    3.2271   -8.1040   -1.6900 C   0  0  0  0  0  0  0  0  0  0  0  0
    3.0714   -6.9878   -0.7042 C   0  0  0  0  0  0  0  0  0  0  0  0
    2.7454   -9.3965   -1.4581 C   0  0  0  0  0  0  0  0  0  0  0  0
    1.9990   -9.6837   -0.3070 N   0  0  0  0  0  0  0  0  0  0  0  0
    1.5172  -10.9070    0.0280 C   0  0  0  0  0  0  0  0  0  0  0  0
    0.8779  -11.0815    1.0574 O   0  0  0  0  0  0  0  0  0  0  0  0
    1.7858  -11.9271   -0.8156 N   0  0  0  0  0  0  0  0  0  0  0  0
    2.4195  -11.7902   -2.0984 C   0  0  0  0  0  0  0  0  0  0  0  0
    2.9779  -10.4275   -2.3748 C   0  0  0  0  0  0  0  0  0  0  0  0
    3.6931  -10.1393   -3.5455 C   0  0  0  0  0  0  0  0  0  0  0  0
    4.1335   -8.8686   -3.7837 N   0  0  0  0  0  0  0  0  0  0  0  0
    3.9783  -11.1578   -4.6358 C   0  0  0  0  0  0  0  0  0  0  0  0
    5.1993  -11.9089   -4.5186 O   0  0  0  0  0  0  0  0  0  0  0  0
    3.9304  -12.5681   -4.3648 O   0  0  0  0  0  0  0  0  0  0  0  0
    4.4603   -4.2561   -3.0585 C   0  0  0  0  0  0  0  0  0  0  0  0
    3.4413   -3.7343   -3.7946 N   0  0  0  0  0  0  0  0  0  0  0  0
    3.6690   -2.5854   -4.4621 C   0  0  0  0  0  0  0  0  0  0  0  0
    4.8808   -1.9220   -4.4614 C   0  0  0  0  0  0  0  0  0  0  0  0
    5.9349   -2.4526   -3.7160 C   0  0  0  0  0  0  0  0  0  0  0  0
    5.7369   -3.6465   -2.9760 C   0  0  0  0  0  0  0  0  0  0  0  0
    6.8254   -4.1381   -2.2197 C   0  0  0  0  0  0  0  0  0  0  0  0
    8.0605   -3.4725   -2.2137 C   0  0  0  0  0  0  0  0  0  0  0  0
    8.2385   -2.2999   -2.9375 C   0  0  0  0  0  0  0  0  0  0  0  0
    7.1814   -1.8002   -3.6956 C   0  0  0  0  0  0  0  0  0  0  0  0
    9.4012   -1.5862   -2.9833 O   0  0  0  0  0  0  0  0  0  0  0  0
   10.2818   -1.7824   -1.8839 C   0  0  2  0  0  0  0  0  0  0  0  0
   10.4691   -3.2315   -1.4529 C   0  0  0  0  0  0  0  0  0  0  0  0
   11.5172   -3.7272   -1.0658 O   0  0  0  0  0  0  0  0  0  0  0  0
    9.1808   -4.0159   -1.4341 C   0  0  0  0  0  0  0  0  0  0  0  0
    9.0686   -5.0262   -0.7589 O   0  0  0  0  0  0  0  0  0  0  0  0
    9.9239   -0.9243   -0.8087 O   0  0  0  0  0  0  0  0  0  0  0  0
    2.9714   -3.4150    1.6981 C   0  0  0  0  0  0  0  0  0  0  0  0
    2.1433   -2.6435    1.2292 O   0  0  0  0  0  0  0  0  0  0  0  0
    3.5437   -3.1777    3.0678 C   0  0  0  0  0  0  0  0  0  0  0  0
    3.3985   -2.0963    3.6318 O   0  0  0  0  0  0  0  0  0  0  0  0
    4.3037   -4.2899    3.7659 C   0  0  0  0  0  0  0  0  0  0  0  0
    4.3715   -4.3769    4.9820 O   0  0  0  0  0  0  0  0  0  0  0  0
  1  2  1  0  0  0  0
  2  3  2  0  0  0  0
  3  4  1  0  0  0  0
  3 46  1  0  0  0  0
  4  5  1  0  0  0  0
  5  6  1  6  0  0  0
  5 42  1  0  0  0  0
  6  7  1  0  0  0  0
  7  8  2  0  0  0  0
  7 12  1  0  0  0  0
  8  9  1  0  0  0  0
  8 25  1  0  0  0  0
  9 10  1  0  0  0  0
 10 11  2  0  0  0  0
 10 21  1  0  0  0  0
 11 12  1  0  0  0  0
 11 13  1  0  0  0  0
 13 14  1  0  0  0  0
 13 19  2  0  0  0  0
 14 15  1  0  0  0  0
 15 16  2  0  0  0  0
 15 17  1  0  0  0  0
 17 18  1  0  0  0  0
 18 19  1  0  0  0  0
 19 20  1  0  0  0  0
 20 21  2  0  0  0  0
 20 22  1  0  0  0  0
 22 23  1  0  0  0  0
 22 24  1  0  0  0  0
 23 24  1  0  0  0  0
 25 26  2  0  0  0  0
 25 30  1  0  0  0  0
 26 27  1  0  0  0  0
 27 28  2  0  0  0  0
 28 29  1  0  0  0  0
 29 30  2  0  0  0  0
 29 34  1  0  0  0  0
 30 31  1  0  0  0  0
 31 32  2  0  0  0  0
 32 33  1  0  0  0  0
 32 39  1  0  0  0  0
 33 34  2  0  0  0  0
 33 35  1  0  0  0  0
 35 36  1  0  0  0  0
 36 37  1  0  0  0  0
 36 41  1  1  0  0  0
 37 38  2  0  0  0  0
 37 39  1  0  0  0  0
 39 40  2  0  0  0  0
 42 43  2  0  0  0  0
 42 44  1  0  0  0  0
 44 45  2  0  0  0  0
 44 46  1  0  0  0  0
 46 47  2  0  0  0  0
M  END
$$$$