
 OpenBabel11272001423D

 54 62  0  0  1  0  0  0  0  0999 V2000
    2.2840    8.5070    1.2092 F   0  0  0  0  0  0  0  0  0  0  0  0
    2.0219    7.9618    0.0042 C   0  0  0  0  0  0  0  0  0  0  0  0
    1.9688    6.6391   -0.1714 C   0  0  0  0  0  0  0  0  0  0  0  0
    2.2480    5.7655    0.8591 O   0  0  0  0  0  0  0  0  0  0  0  0
    1.3780    4.6279    0.9262 C   0  0  2  0  0  0  0  0  0  0  0  0
    1.5796    3.8648    2.1479 O   0  0  0  0  0  0  0  0  0  0  0  0
    1.7817    4.5805    3.3282 C   0  0  0  0  0  0  0  0  0  0  0  0
    2.5337    4.1307    4.3698 C   0  0  0  0  0  0  0  0  0  0  0  0
    2.6612    4.8904    5.5587 O   0  0  0  0  0  0  0  0  0  0  0  0
    2.0107    6.1146    5.6954 C   0  0  0  0  0  0  0  0  0  0  0  0
    1.2424    6.6009    4.7105 C   0  0  0  0  0  0  0  0  0  0  0  0
    1.0610    5.8910    3.4248 C   0  0  0  0  0  0  0  0  0  0  0  0
    0.5538    7.9246    4.7828 C   0  0  3  0  0  0  0  0  0  0  0  0
   -0.8256    7.6917    4.6198 O   0  0  0  0  0  0  0  0  0  0  0  0
   -1.6338    8.7802    4.6941 C   0  0  0  0  0  0  0  0  0  0  0  0
   -2.7448    8.7636    4.1896 O   0  0  0  0  0  0  0  0  0  0  0  0
   -1.1433    9.8569    5.3622 O   0  0  0  0  0  0  0  0  0  0  0  0
   -0.0644    9.7747    6.1649 C   0  0  0  0  0  0  0  0  0  0  0  0
    0.2843   10.6860    6.9002 O   0  0  0  0  0  0  0  0  0  0  0  0
    0.7261    8.5455    6.0959 C   0  0  0  0  0  0  0  0  0  0  0  0
    1.5153    8.0371    7.0709 C   0  0  0  0  0  0  0  0  0  0  0  0
    2.1831    6.8254    6.8637 O   0  3  0  0  0  0  0  0  0  0  0  0
    1.7471    8.6790    8.3894 C   0  0  0  0  0  0  0  0  0  0  0  0
    2.6059    8.0476    9.3574 O   0  0  0  0  0  0  0  0  0  0  0  0
    3.0187    9.2631    8.7060 O   0  0  0  0  0  0  0  0  0  0  0  0
    3.2562    2.8116    4.4599 C   0  0  0  0  0  0  0  0  0  0  0  0
    3.2444    2.2809    5.7120 N   0  0  0  0  0  0  0  0  0  0  0  0
    3.8209    1.0687    5.8877 C   0  0  0  0  0  0  0  0  0  0  0  0
    3.8313    0.5689    7.1317 F   0  0  0  0  0  0  0  0  0  0  0  0
    4.4002    0.3243    4.8798 C   0  0  0  0  0  0  0  0  0  0  0  0
    4.4395    0.8618    3.5919 C   0  0  0  0  0  0  0  0  0  0  0  0
    3.9159    2.1586    3.3823 C   0  0  0  0  0  0  0  0  0  0  0  0
    4.1298    2.7207    2.1118 C   0  0  0  0  0  0  0  0  0  0  0  0
    4.6544    1.9872    1.0439 C   0  0  0  0  0  0  0  0  0  0  0  0
    4.7781    2.6352   -0.2640 C   0  0  0  0  0  0  0  0  0  0  0  0
    4.5041    3.8198   -0.4170 O   0  0  0  0  0  0  0  0  0  0  0  0
    5.2690    1.7727   -1.3985 C   0  0  0  0  0  0  0  0  0  0  0  0
    5.6745    2.2903   -2.4293 O   0  0  0  0  0  0  0  0  0  0  0  0
    5.2094    0.2827   -1.1295 C   0  0  1  0  0  0  0  0  0  0  0  0
    5.5670   -0.0971    0.2113 O   0  0  0  0  0  0  0  0  0  0  0  0
    5.0629    0.6798    1.2172 C   0  0  0  0  0  0  0  0  0  0  0  0
    5.0024    0.1474    2.5068 C   0  0  0  0  0  0  0  0  0  0  0  0
    5.4920   -1.0851    2.7208 F   0  0  0  0  0  0  0  0  0  0  0  0
    3.8808   -0.2946   -1.4959 C   0  0  1  0  0  0  0  0  0  0  0  0
    2.7452    0.2035   -0.7688 O   0  0  0  0  0  0  0  0  0  0  0  0
    3.6920   -0.5612   -2.8819 O   0  0  0  0  0  0  0  0  0  0  0  0
    3.6827   -1.6363   -2.0561 C   0  0  0  0  0  0  0  0  0  0  0  0
    2.7995   -2.4261   -1.8452 O   0  0  0  0  0  0  0  0  0  0  0  0
    1.6166    3.7979   -0.3221 C   0  0  0  0  0  0  0  0  0  0  0  0
    1.7916    2.5911   -0.3412 O   0  0  0  0  0  0  0  0  0  0  0  0
    1.5698    4.6110   -1.5980 C   0  0  0  0  0  0  0  0  0  0  0  0
    1.4105    4.0533   -2.6716 O   0  0  0  0  0  0  0  0  0  0  0  0
    1.6158    6.1249   -1.5168 C   0  0  0  0  0  0  0  0  0  0  0  0
    1.2979    6.8437   -2.4478 O   0  0  0  0  0  0  0  0  0  0  0  0
  1  2  1  0  0  0  0
  2  3  2  0  0  0  0
  3  4  1  0  0  0  0
  3 53  1  0  0  0  0
  4  5  1  0  0  0  0
  5  6  1  1  0  0  0
  5 49  1  0  0  0  0
  6  7  1  0  0  0  0
  7  8  2  0  0  0  0
  7 12  1  0  0  0  0
  8  9  1  0  0  0  0
  8 26  1  0  0  0  0
  9 10  1  0  0  0  0
 10 11  2  0  0  0  0
 10 22  1  0  0  0  0
 11 12  1  0  0  0  0
 11 13  1  0  0  0  0
 13 14  1  0  0  0  0
 13 20  1  0  0  0  0
 14 15  1  0  0  0  0
 15 16  2  0  0  0  0
 15 17  1  0  0  0  0
 17 18  1  0  0  0  0
 18 19  2  0  0  0  0
 18 20  1  0  0  0  0
 20 21  2  0  0  0  0
 21 22  1  0  0  0  0
 21 23  1  0  0  0  0
 23 24  1  0  0  0  0
 23 25  1  0  0  0  0
 24 25  1  0  0  0  0
 26 27  2  0  0  0  0
 26 32  1  0  0  0  0
 27 28  1  0  0  0  0
 28 29  1  0  0  0  0
 28 30  2  0  0  0  0
 30 31  1  0  0  0  0
 31 32  2  0  0  0  0
 31 42  1  0  0  0  0
 32 33  1  0  0  0  0
 33 34  2  0  0  0  0
 34 35  1  0  0  0  0
 34 41  1  0  0  0  0
 35 36  2  0  0  0  0
 35 37  1  0  0  0  0
 37 38  2  0  0  0  0
 39 37  1  1  0  0  0
 39 40  1  0  0  0  0
 39 44  1  0  0  0  0
 40 41  1  0  0  0  0
 41 42  2  0  0  0  0
 42 43  1  0  0  0  0
 44 45  1  1  0  0  0
 44 46  1  0  0  0  0
 44 47  1  0  0  0  0
 46 47  1  0  0  0  0
 47 48  2  0  0  0  0
 49 50  2  0  0  0  0
 49 51  1  0  0  0  0
 51 52  2  0  0  0  0
 51 53  1  0  0  0  0
 53 54  2  0  0  0  0
M  CHG  1  22   1
M  END
$$$$