
 OpenBabel09222002323D

 53 62  0  0  1  0  0  0  0  0999 V2000
    1.9201    0.3937    0.6536 O   0  0  0  0  0  0  0  0  0  0  0  0
    2.8101    0.1260   -0.1461 C   0  0  0  0  0  0  0  0  0  0  0  0
    2.9330   -1.1075   -0.6939 N   0  0  0  0  0  0  0  0  0  0  0  0
    4.1466   -1.5633   -1.3479 C   0  0  2  0  0  0  0  0  0  0  0  0
    5.0632   -2.3031   -0.4084 C   0  0  0  0  0  0  0  0  0  0  0  0
    5.5234   -1.5795    0.7367 O   0  0  0  0  0  0  0  0  0  0  0  0
    4.5452   -2.6360    0.8821 O   0  0  0  0  0  0  0  0  0  0  0  0
    4.8820   -0.4258   -1.9900 C   0  0  0  0  0  0  0  0  0  0  0  0
    4.6765    0.8738   -1.5381 C   0  0  0  0  0  0  0  0  0  0  0  0
    3.6871    1.0792   -0.5669 N   0  0  0  0  0  0  0  0  0  0  0  0
    5.4367    1.9349   -2.0477 C   0  0  0  0  0  0  0  0  0  0  0  0
    5.2681    3.3474   -1.5784 C   0  0  0  0  0  0  0  0  0  0  0  0
    6.0869    4.3572   -2.3394 C   0  0  0  0  0  0  0  0  0  0  0  0
    6.9592    3.9320   -3.2791 C   0  0  0  0  0  0  0  0  0  0  0  0
    7.1557    2.6002   -3.6155 O   0  0  0  0  0  0  0  0  0  0  0  0
    6.3709    1.6322   -3.0306 C   0  0  0  0  0  0  0  0  0  0  0  0
    6.5865    0.3815   -3.4994 N   0  0  0  0  0  0  0  0  0  0  0  0
    5.8427   -0.5954   -2.9623 C   0  0  0  0  0  0  0  0  0  0  0  0
    6.1257   -1.8261   -3.4573 O   0  0  0  0  0  0  0  0  0  0  0  0
    7.7812    4.8542   -4.0883 C   0  0  0  0  0  0  0  0  0  0  0  0
    7.1761    5.2602   -5.2351 N   0  0  0  0  0  0  0  0  0  0  0  0
    7.8479    6.1283   -6.0163 C   0  0  0  0  0  0  0  0  0  0  0  0
    9.1010    6.6292   -5.7128 C   0  0  0  0  0  0  0  0  0  0  0  0
    9.7407    6.1889   -4.5513 C   0  0  0  0  0  0  0  0  0  0  0  0
    9.0835    5.2610   -3.7088 C   0  0  0  0  0  0  0  0  0  0  0  0
    9.7760    4.7988   -2.5667 C   0  0  0  0  0  0  0  0  0  0  0  0
   11.0687    5.2545   -2.2753 C   0  0  0  0  0  0  0  0  0  0  0  0
   11.6938    6.1944   -3.0871 C   0  0  0  0  0  0  0  0  0  0  0  0
   11.0295    6.6536   -4.2244 C   0  0  0  0  0  0  0  0  0  0  0  0
   12.9434    6.7099   -2.8775 O   0  0  0  0  0  0  0  0  0  0  0  0
   13.5434    6.4637   -1.6009 C   0  0  2  0  0  0  0  0  0  0  0  0
   13.2362    5.1153   -0.9978 C   0  0  0  0  0  0  0  0  0  0  0  0
   14.0553    4.3975   -0.4420 O   0  0  0  0  0  0  0  0  0  0  0  0
   11.7902    4.7069   -1.1214 C   0  0  0  0  0  0  0  0  0  0  0  0
   11.2730    3.9452   -0.3207 O   0  0  0  0  0  0  0  0  0  0  0  0
   13.2055    7.5625   -0.6454 C   0  0  1  0  0  0  0  0  0  0  0  0
   11.8010    7.7575   -0.3529 O   0  0  0  0  0  0  0  0  0  0  0  0
   14.0900    7.6685    0.4730 O   0  0  0  0  0  0  0  0  0  0  0  0
   14.0734    8.7096   -0.3825 C   0  0  0  0  0  0  0  0  0  0  0  0
   13.7961    9.8689   -0.1842 O   0  0  0  0  0  0  0  0  0  0  0  0
    5.9592    5.7133   -2.0355 O   0  0  0  0  0  0  0  0  0  0  0  0
    4.6912    6.1712   -1.5664 C   0  0  1  0  0  0  0  0  0  0  0  0
    4.6089    6.0381   -0.1413 O   0  0  0  0  0  0  0  0  0  0  0  0
    3.2668    6.1494    0.3567 C   0  0  1  0  0  0  0  0  0  0  0  0
    3.3107    6.0275    1.8477 C   0  0  0  0  0  0  0  0  0  0  0  0
    2.0459    6.0750    2.5074 O   0  0  0  0  0  0  0  0  0  0  0  0
    2.9753    7.1826    2.6112 O   0  0  0  0  0  0  0  0  0  0  0  0
    2.5673    7.4013   -0.1488 C   0  0  0  0  0  0  0  0  0  0  0  0
    1.3727    7.6340   -0.0489 O   0  0  0  0  0  0  0  0  0  0  0  0
    3.4603    8.2942   -0.9748 C   0  0  0  0  0  0  0  0  0  0  0  0
    3.3904    9.5069   -0.8714 O   0  0  0  0  0  0  0  0  0  0  0  0
    4.4288    7.6329   -1.9324 C   0  0  0  0  0  0  0  0  0  0  0  0
    4.8248    8.2145   -2.9301 O   0  0  0  0  0  0  0  0  0  0  0  0
  1  2  2  0  0  0  0
  2  3  1  0  0  0  0
  2 10  1  0  0  0  0
  3  4  1  0  0  0  0
  4  5  1  1  0  0  0
  4  8  1  0  0  0  0
  5  6  1  0  0  0  0
  5  7  1  0  0  0  0
  6  7  1  0  0  0  0
  8  9  2  0  0  0  0
  8 18  1  0  0  0  0
  9 10  1  0  0  0  0
  9 11  1  0  0  0  0
 11 12  1  0  0  0  0
 11 16  2  0  0  0  0
 12 13  1  0  0  0  0
 13 14  2  0  0  0  0
 13 41  1  0  0  0  0
 14 15  1  0  0  0  0
 14 20  1  0  0  0  0
 15 16  1  0  0  0  0
 16 17  1  0  0  0  0
 17 18  2  0  0  0  0
 18 19  1  0  0  0  0
 20 21  2  0  0  0  0
 20 25  1  0  0  0  0
 21 22  1  0  0  0  0
 22 23  2  0  0  0  0
 23 24  1  0  0  0  0
 24 25  2  0  0  0  0
 24 29  1  0  0  0  0
 25 26  1  0  0  0  0
 26 27  2  0  0  0  0
 27 28  1  0  0  0  0
 27 34  1  0  0  0  0
 28 29  2  0  0  0  0
 28 30  1  0  0  0  0
 31 30  1  6  0  0  0
 31 32  1  0  0  0  0
 31 36  1  0  0  0  0
 32 33  2  0  0  0  0
 32 34  1  0  0  0  0
 34 35  2  0  0  0  0
 36 37  1  1  0  0  0
 36 38  1  0  0  0  0
 36 39  1  0  0  0  0
 38 39  1  0  0  0  0
 39 40  2  0  0  0  0
 42 41  1  1  0  0  0
 42 43  1  0  0  0  0
 42 52  1  0  0  0  0
 43 44  1  0  0  0  0
 44 48  1  0  0  0  0
 44 45  1  1  0  0  0
 45 46  1  0  0  0  0
 45 47  1  0  0  0  0
 46 47  1  0  0  0  0
 48 49  2  0  0  0  0
 48 50  1  0  0  0  0
 50 51  2  0  0  0  0
 50 52  1  0  0  0  0
 52 53  2  0  0  0  0
M  END
$$$$