
 OpenBabel11262000053D

 54 62  0  0  1  0  0  0  0  0999 V2000
    1.7486   -6.9866   -5.7394 O   0  0  0  0  0  0  0  0  0  0  0  0
    1.1286   -6.8342   -4.5289 C   0  0  0  0  0  0  0  0  0  0  0  0
    1.1578   -5.6916   -3.8279 C   0  0  0  0  0  0  0  0  0  0  0  0
    1.9029   -4.6024   -4.2204 O   0  0  0  0  0  0  0  0  0  0  0  0
    1.3040   -3.3172   -4.0337 C   0  0  2  0  0  0  0  0  0  0  0  0
    2.1867   -2.2545   -4.4863 O   0  0  0  0  0  0  0  0  0  0  0  0
    2.4842   -2.2200   -5.8520 C   0  0  0  0  0  0  0  0  0  0  0  0
    2.8319   -1.0812   -6.4959 C   0  0  0  0  0  0  0  0  0  0  0  0
    3.1419   -1.0209   -7.8591 O   0  0  0  0  0  0  0  0  0  0  0  0
    3.1942   -2.1904   -8.5952 C   0  0  0  0  0  0  0  0  0  0  0  0
    2.9245   -3.4077   -8.0246 C   0  0  0  0  0  0  0  0  0  0  0  0
    2.4937   -3.5184   -6.6086 C   0  0  0  0  0  0  0  0  0  0  0  0
    3.0554   -4.5374   -8.8239 C   0  0  0  0  0  0  0  0  0  0  0  0
    2.7602   -5.7771   -8.2478 O   0  0  0  0  0  0  0  0  0  0  0  0
    2.9461   -6.9969   -8.8874 C   0  0  0  0  0  0  0  0  0  0  0  0
    2.7027   -8.0545   -8.3172 O   0  0  0  0  0  0  0  0  0  0  0  0
    3.4508   -6.9452  -10.1404 O   0  0  0  0  0  0  0  0  0  0  0  0
    3.5495   -5.7402  -10.9034 C   0  0  3  0  0  0  0  0  0  0  0  0
    3.4296   -4.4658  -10.1427 C   0  0  0  0  0  0  0  0  0  0  0  0
    3.6202   -3.1883  -10.6869 C   0  0  0  0  0  0  0  0  0  0  0  0
    3.5305   -2.0677   -9.8984 N   0  0  0  0  0  0  0  0  0  0  0  0
    3.9262   -2.9874  -12.1551 C   0  0  0  0  0  0  0  0  0  0  0  0
    2.9706   -3.4797  -13.1101 O   0  0  0  0  0  0  0  0  0  0  0  0
    3.1005   -2.0641  -12.8832 O   0  0  0  0  0  0  0  0  0  0  0  0
    4.8079   -5.7741  -11.5636 O   0  0  0  0  0  0  0  0  0  0  0  0
    2.9715    0.2327   -5.8280 C   0  0  0  0  0  0  0  0  0  0  0  0
    4.2406    0.5794   -5.3604 C   0  0  0  0  0  0  0  0  0  0  0  0
    4.4094    1.8187   -4.7846 C   0  0  0  0  0  0  0  0  0  0  0  0
    5.6261    2.1576   -4.3361 F   0  0  0  0  0  0  0  0  0  0  0  0
    3.4272    2.7251   -4.6472 N   0  0  0  0  0  0  0  0  0  0  0  0
    2.1955    2.4093   -5.0823 C   0  0  0  0  0  0  0  0  0  0  0  0
    1.9065    1.1600   -5.6863 C   0  0  0  0  0  0  0  0  0  0  0  0
    0.5825    0.8996   -6.1048 C   0  0  0  0  0  0  0  0  0  0  0  0
   -0.4335    1.8400   -5.8972 C   0  0  0  0  0  0  0  0  0  0  0  0
   -1.8203    1.5047   -6.2217 C   0  0  0  0  0  0  0  0  0  0  0  0
   -2.1252    0.5458   -6.9108 O   0  0  0  0  0  0  0  0  0  0  0  0
   -2.8623    2.4135   -5.6248 C   0  0  0  0  0  0  0  0  0  0  0  0
   -3.9540    1.9807   -5.2869 O   0  0  0  0  0  0  0  0  0  0  0  0
   -2.4296    3.8503   -5.5501 C   0  0  1  0  0  0  0  0  0  0  0  0
   -1.0763    4.0632   -5.1266 O   0  0  0  0  0  0  0  0  0  0  0  0
   -0.1563    3.0738   -5.3349 C   0  0  0  0  0  0  0  0  0  0  0  0
    1.1577    3.3359   -4.9371 C   0  0  0  0  0  0  0  0  0  0  0  0
    1.4226    4.5295   -4.3751 F   0  0  0  0  0  0  0  0  0  0  0  0
   -2.6747    4.5397   -6.8639 C   0  0  1  0  0  0  0  0  0  0  0  0
   -1.9922    3.9949   -8.0194 O   0  0  0  0  0  0  0  0  0  0  0  0
   -4.0254    4.9156   -7.1339 O   0  0  0  0  0  0  0  0  0  0  0  0
   -3.1432    5.8982   -6.9203 C   0  0  0  0  0  0  0  0  0  0  0  0
   -3.1679    6.7974   -6.0816 O   0  0  0  0  0  0  0  0  0  0  0  0
    0.9162   -3.0836   -2.5733 C   0  0  0  0  0  0  0  0  0  0  0  0
    0.7740   -1.9857   -2.0498 O   0  0  0  0  0  0  0  0  0  0  0  0
    0.5912   -4.3490   -1.8023 C   0  0  0  0  0  0  0  0  0  0  0  0
    0.4300   -4.3110   -0.5913 O   0  0  0  0  0  0  0  0  0  0  0  0
    0.4632   -5.6703   -2.5229 C   0  0  0  0  0  0  0  0  0  0  0  0
   -0.1611   -6.6098   -2.0601 O   0  0  0  0  0  0  0  0  0  0  0  0
  1  2  1  0  0  0  0
  2  3  2  0  0  0  0
  3  4  1  0  0  0  0
  3 53  1  0  0  0  0
  4  5  1  0  0  0  0
  5  6  1  1  0  0  0
  5 49  1  0  0  0  0
  6  7  1  0  0  0  0
  7  8  2  0  0  0  0
  7 12  1  0  0  0  0
  8  9  1  0  0  0  0
  8 26  1  0  0  0  0
  9 10  1  0  0  0  0
 10 11  2  0  0  0  0
 10 21  1  0  0  0  0
 11 12  1  0  0  0  0
 11 13  1  0  0  0  0
 13 14  1  0  0  0  0
 13 19  2  0  0  0  0
 14 15  1  0  0  0  0
 15 16  2  0  0  0  0
 15 17  1  0  0  0  0
 17 18  1  0  0  0  0
 18 19  1  0  0  0  0
 18 25  1  0  0  0  0
 19 20  1  0  0  0  0
 20 21  2  0  0  0  0
 20 22  1  0  0  0  0
 22 23  1  0  0  0  0
 22 24  1  0  0  0  0
 23 24  1  0  0  0  0
 26 27  2  0  0  0  0
 26 32  1  0  0  0  0
 27 28  1  0  0  0  0
 28 29  1  0  0  0  0
 28 30  2  0  0  0  0
 30 31  1  0  0  0  0
 31 32  2  0  0  0  0
 31 42  1  0  0  0  0
 32 33  1  0  0  0  0
 33 34  2  0  0  0  0
 34 35  1  0  0  0  0
 34 41  1  0  0  0  0
 35 36  2  0  0  0  0
 35 37  1  0  0  0  0
 37 38  2  0  0  0  0
 39 37  1  6  0  0  0
 39 40  1  0  0  0  0
 39 44  1  0  0  0  0
 40 41  1  0  0  0  0
 41 42  2  0  0  0  0
 42 43  1  0  0  0  0
 44 45  1  6  0  0  0
 44 46  1  0  0  0  0
 44 47  1  0  0  0  0
 46 47  1  0  0  0  0
 47 48  2  0  0  0  0
 49 50  2  0  0  0  0
 49 51  1  0  0  0  0
 51 52  2  0  0  0  0
 51 53  1  0  0  0  0
 53 54  2  0  0  0  0
M  END
$$$$