
 OpenBabel09222010353D

 51 59  0  0  1  0  0  0  0  0999 V2000
    6.4313   -0.8567   -7.2605 O   0  0  0  0  0  0  0  0  0  0  0  0
    6.0876   -2.0307   -6.6396 C   0  0  0  0  0  0  0  0  0  0  0  0
    5.0730   -2.1506   -5.7771 C   0  0  0  0  0  0  0  0  0  0  0  0
    4.2997   -1.0505   -5.4522 O   0  0  0  0  0  0  0  0  0  0  0  0
    2.9171   -1.3725   -5.2511 C   0  0  2  0  0  0  0  0  0  0  0  0
    2.1285   -0.1887   -5.0791 O   0  0  0  0  0  0  0  0  0  0  0  0
    2.1737    0.6539   -6.1838 C   0  0  0  0  0  0  0  0  0  0  0  0
    2.0409    1.9860   -6.0312 C   0  0  0  0  0  0  0  0  0  0  0  0
    2.1415    2.9372   -7.1947 C   0  0  0  0  0  0  0  0  0  0  0  0
    2.5837    2.2544   -8.4671 C   0  0  0  0  0  0  0  0  0  0  0  0
    2.6377    0.8754   -8.5077 C   0  0  0  0  0  0  0  0  0  0  0  0
    2.3458    0.0749   -7.4369 O   0  0  0  0  0  0  0  0  0  0  0  0
    3.0448    0.2720   -9.6908 C   0  0  0  0  0  0  0  0  0  0  0  0
    3.0838   -1.1236   -9.7843 N   0  0  0  0  0  0  0  0  0  0  0  0
    3.6019   -1.8118  -10.8322 C   0  0  0  0  0  0  0  0  0  0  0  0
    3.6430   -3.0365  -10.8393 O   0  0  0  0  0  0  0  0  0  0  0  0
    4.1007   -1.0799  -11.8538 N   0  0  0  0  0  0  0  0  0  0  0  0
    3.8472    0.3241  -12.0410 C   0  0  0  0  0  0  0  0  0  0  0  0
    3.4224    1.0377  -10.7944 C   0  0  0  0  0  0  0  0  0  0  0  0
    3.3282    2.4346  -10.7062 C   0  0  0  0  0  0  0  0  0  0  0  0
    2.9008    3.0257   -9.5434 N   0  0  0  0  0  0  0  0  0  0  0  0
    3.6390    3.3671  -11.8635 C   0  0  0  0  0  0  0  0  0  0  0  0
    4.9893    3.8519  -11.9584 O   0  0  0  0  0  0  0  0  0  0  0  0
    4.4804    2.9407  -12.9467 O   0  0  0  0  0  0  0  0  0  0  0  0
    1.8193    2.6074   -4.7151 C   0  0  0  0  0  0  0  0  0  0  0  0
    2.9612    2.9475   -4.0697 N   0  0  0  0  0  0  0  0  0  0  0  0
    2.8341    3.5298   -2.8598 C   0  0  0  0  0  0  0  0  0  0  0  0
    1.6181    3.8146   -2.2626 C   0  0  0  0  0  0  0  0  0  0  0  0
    0.4396    3.4724   -2.9321 C   0  0  0  0  0  0  0  0  0  0  0  0
    0.5242    2.8417   -4.1943 C   0  0  0  0  0  0  0  0  0  0  0  0
   -0.6800    2.4873   -4.8428 C   0  0  0  0  0  0  0  0  0  0  0  0
   -1.9193    2.7502   -4.2487 C   0  0  0  0  0  0  0  0  0  0  0  0
   -2.0005    3.3959   -3.0222 C   0  0  0  0  0  0  0  0  0  0  0  0
   -0.8206    3.7465   -2.3641 C   0  0  0  0  0  0  0  0  0  0  0  0
   -3.1626    3.7190   -2.3814 O   0  0  0  0  0  0  0  0  0  0  0  0
   -4.3904    3.5474   -3.1016 C   0  0  2  0  0  0  0  0  0  0  0  0
   -4.4053    2.4097   -4.0886 C   0  0  0  0  0  0  0  0  0  0  0  0
   -5.3394    1.6429   -4.2690 O   0  0  0  0  0  0  0  0  0  0  0  0
   -3.1495    2.3127   -4.9121 C   0  0  0  0  0  0  0  0  0  0  0  0
   -3.1709    1.8981   -6.0592 O   0  0  0  0  0  0  0  0  0  0  0  0
   -4.7931    4.8347   -3.7639 C   0  0  1  0  0  0  0  0  0  0  0  0
   -3.8726    5.4000   -4.7221 O   0  0  0  0  0  0  0  0  0  0  0  0
   -6.1638    4.9403   -4.1575 O   0  0  0  0  0  0  0  0  0  0  0  0
   -5.7658    5.7148   -3.1351 C   0  0  0  0  0  0  0  0  0  0  0  0
   -6.1917    5.7898   -1.9988 O   0  0  0  0  0  0  0  0  0  0  0  0
    2.7717   -2.2855   -4.0404 C   0  0  0  0  0  0  0  0  0  0  0  0
    1.9178   -2.2017   -3.1700 O   0  0  0  0  0  0  0  0  0  0  0  0
    3.7766   -3.4175   -4.0438 C   0  0  0  0  0  0  0  0  0  0  0  0
    3.7570   -4.2727   -3.1728 O   0  0  0  0  0  0  0  0  0  0  0  0
    4.8155   -3.4735   -5.1454 C   0  0  0  0  0  0  0  0  0  0  0  0
    5.3455   -4.5177   -5.4816 O   0  0  0  0  0  0  0  0  0  0  0  0
  1  2  1  0  0  0  0
  2  3  2  0  0  0  0
  3  4  1  0  0  0  0
  3 50  1  0  0  0  0
  4  5  1  0  0  0  0
  5  6  1  1  0  0  0
  5 46  1  0  0  0  0
  6  7  1  0  0  0  0
  7  8  2  0  0  0  0
  7 12  1  0  0  0  0
  8  9  1  0  0  0  0
  8 25  1  0  0  0  0
  9 10  1  0  0  0  0
 10 11  2  0  0  0  0
 10 21  1  0  0  0  0
 11 12  1  0  0  0  0
 11 13  1  0  0  0  0
 13 14  1  0  0  0  0
 13 19  2  0  0  0  0
 14 15  1  0  0  0  0
 15 16  2  0  0  0  0
 15 17  1  0  0  0  0
 17 18  1  0  0  0  0
 18 19  1  0  0  0  0
 19 20  1  0  0  0  0
 20 21  2  0  0  0  0
 20 22  1  0  0  0  0
 22 23  1  0  0  0  0
 22 24  1  0  0  0  0
 23 24  1  0  0  0  0
 25 26  2  0  0  0  0
 25 30  1  0  0  0  0
 26 27  1  0  0  0  0
 27 28  2  0  0  0  0
 28 29  1  0  0  0  0
 29 30  2  0  0  0  0
 29 34  1  0  0  0  0
 30 31  1  0  0  0  0
 31 32  2  0  0  0  0
 32 33  1  0  0  0  0
 32 39  1  0  0  0  0
 33 34  2  0  0  0  0
 33 35  1  0  0  0  0
 36 35  1  6  0  0  0
 36 37  1  0  0  0  0
 36 41  1  0  0  0  0
 37 38  2  0  0  0  0
 37 39  1  0  0  0  0
 39 40  2  0  0  0  0
 41 42  1  6  0  0  0
 41 43  1  0  0  0  0
 41 44  1  0  0  0  0
 43 44  1  0  0  0  0
 44 45  2  0  0  0  0
 46 47  2  0  0  0  0
 46 48  1  0  0  0  0
 48 49  2  0  0  0  0
 48 50  1  0  0  0  0
 50 51  2  0  0  0  0
M  END
$$$$