
 OpenBabel11172006063D

 53 61  0  0  1  0  0  0  0  0999 V2000
    5.5952    5.6881    4.5094 O   0  0  0  0  0  0  0  0  0  0  0  0
    5.3197    5.6582    3.1678 C   0  0  0  0  0  0  0  0  0  0  0  0
    4.6455    4.6600    2.5837 C   0  0  0  0  0  0  0  0  0  0  0  0
    4.2543    3.5335    3.2759 O   0  0  0  0  0  0  0  0  0  0  0  0
    2.8729    3.2275    3.1267 C   0  0  2  0  0  0  0  0  0  0  0  0
    2.5315    2.0398    3.8745 O   0  0  0  0  0  0  0  0  0  0  0  0
    2.7024    2.0814    5.2566 C   0  0  0  0  0  0  0  0  0  0  0  0
    2.9840    0.9687    5.9714 C   0  0  0  0  0  0  0  0  0  0  0  0
    3.1596    0.9763    7.3562 O   0  0  0  0  0  0  0  0  0  0  0  0
    3.1703    2.1776    8.0374 C   0  0  0  0  0  0  0  0  0  0  0  0
    2.8633    3.3343    7.4316 C   0  0  0  0  0  0  0  0  0  0  0  0
    2.5023    3.3950    5.9820 C   0  0  0  0  0  0  0  0  0  0  0  0
    2.9616    4.6370    8.1797 C   0  0  3  0  0  0  0  0  0  0  0  0
    1.6758    5.2458    8.1757 O   0  0  0  0  0  0  0  0  0  0  0  0
    1.4487    6.3438    8.9395 C   0  0  0  0  0  0  0  0  0  0  0  0
    0.4484    7.0304    8.7778 O   0  0  0  0  0  0  0  0  0  0  0  0
    2.3623    6.6445    9.8953 O   0  0  0  0  0  0  0  0  0  0  0  0
    3.4814    5.8265   10.2216 C   0  0  1  0  0  0  0  0  0  0  0  0
    3.4048    4.4975    9.5897 C   0  0  0  0  0  0  0  0  0  0  0  0
    3.6871    3.2970   10.1441 C   0  0  0  0  0  0  0  0  0  0  0  0
    3.5373    2.1578    9.3609 N   0  0  0  0  0  0  0  0  0  0  0  0
    4.1679    3.1052   11.5450 C   0  0  0  0  0  0  0  0  0  0  0  0
    3.1815    2.9329   12.5828 O   0  0  0  0  0  0  0  0  0  0  0  0
    5.3805    2.3687   11.7939 O   0  0  0  0  0  0  0  0  0  0  0  0
    5.3498    3.7892   12.0049 O   0  0  0  0  0  0  0  0  0  0  0  0
    4.6565    6.4588    9.7377 O   0  0  0  0  0  0  0  0  0  0  0  0
    3.1345   -0.3920    5.4310 C   0  0  0  0  0  0  0  0  0  0  0  0
    2.0117   -1.1999    5.3503 C   0  0  0  0  0  0  0  0  0  0  0  0
    2.0842   -2.5202    5.1017 N   0  0  0  0  0  0  0  0  0  0  0  0
    3.3080   -3.1049    4.9456 N   0  0  0  0  0  0  0  0  0  0  0  0
    4.4298   -2.3724    4.9637 C   0  0  0  0  0  0  0  0  0  0  0  0
    4.3924   -0.9789    5.1722 C   0  0  0  0  0  0  0  0  0  0  0  0
    5.6032   -0.2510    5.1090 C   0  0  0  0  0  0  0  0  0  0  0  0
    6.8097   -0.8982    4.8223 C   0  0  0  0  0  0  0  0  0  0  0  0
    6.8432   -2.2765    4.6736 C   0  0  0  0  0  0  0  0  0  0  0  0
    5.6561   -3.0015    4.7721 C   0  0  0  0  0  0  0  0  0  0  0  0
    7.9741   -3.0014    4.4234 O   0  0  0  0  0  0  0  0  0  0  0  0
    9.0379   -2.2980    3.7758 C   0  0  2  0  0  0  0  0  0  0  0  0
    9.2834   -0.8853    4.2550 C   0  0  0  0  0  0  0  0  0  0  0  0
   10.3852   -0.3536    4.2892 O   0  0  0  0  0  0  0  0  0  0  0  0
    8.0396   -0.1198    4.6409 C   0  0  0  0  0  0  0  0  0  0  0  0
    8.0612    1.0937    4.7746 O   0  0  0  0  0  0  0  0  0  0  0  0
    8.8582   -2.3376    2.2889 C   0  0  1  0  0  0  0  0  0  0  0  0
    7.6413   -1.7499    1.7665 O   0  0  0  0  0  0  0  0  0  0  0  0
   10.0466   -2.0779    1.5393 O   0  0  0  0  0  0  0  0  0  0  0  0
    9.5131   -3.3118    1.4138 C   0  0  0  0  0  0  0  0  0  0  0  0
    9.1016   -3.8777    0.4328 O   0  0  0  0  0  0  0  0  0  0  0  0
    2.4445    3.0384    1.6712 C   0  0  0  0  0  0  0  0  0  0  0  0
    1.4931    2.3629    1.2996 O   0  0  0  0  0  0  0  0  0  0  0  0
    3.2108    3.8864    0.6778 C   0  0  0  0  0  0  0  0  0  0  0  0
    2.8828    3.8920   -0.5006 O   0  0  0  0  0  0  0  0  0  0  0  0
    4.3351    4.7858    1.1394 C   0  0  0  0  0  0  0  0  0  0  0  0
    4.8845    5.5752    0.3886 O   0  0  0  0  0  0  0  0  0  0  0  0
  1  2  1  0  0  0  0
  2  3  2  0  0  0  0
  3  4  1  0  0  0  0
  3 52  1  0  0  0  0
  4  5  1  0  0  0  0
  5  6  1  1  0  0  0
  5 48  1  0  0  0  0
  6  7  1  0  0  0  0
  7  8  2  0  0  0  0
  7 12  1  0  0  0  0
  8  9  1  0  0  0  0
  8 27  1  0  0  0  0
  9 10  1  0  0  0  0
 10 11  2  0  0  0  0
 10 21  1  0  0  0  0
 11 12  1  0  0  0  0
 11 13  1  0  0  0  0
 13 14  1  0  0  0  0
 13 19  1  0  0  0  0
 14 15  1  0  0  0  0
 15 16  2  0  0  0  0
 15 17  1  0  0  0  0
 17 18  1  0  0  0  0
 18 19  1  0  0  0  0
 18 26  1  6  0  0  0
 19 20  2  0  0  0  0
 20 21  1  0  0  0  0
 20 22  1  0  0  0  0
 22 23  1  0  0  0  0
 22 24  1  0  0  0  0
 22 25  1  0  0  0  0
 24 25  1  0  0  0  0
 27 28  2  0  0  0  0
 27 32  1  0  0  0  0
 28 29  1  0  0  0  0
 29 30  2  0  0  0  0
 30 31  1  0  0  0  0
 31 32  2  0  0  0  0
 31 36  1  0  0  0  0
 32 33  1  0  0  0  0
 33 34  2  0  0  0  0
 34 35  1  0  0  0  0
 34 41  1  0  0  0  0
 35 36  2  0  0  0  0
 35 37  1  0  0  0  0
 38 37  1  1  0  0  0
 38 39  1  0  0  0  0
 38 43  1  0  0  0  0
 39 40  2  0  0  0  0
 39 41  1  0  0  0  0
 41 42  2  0  0  0  0
 43 44  1  6  0  0  0
 43 45  1  0  0  0  0
 43 46  1  0  0  0  0
 45 46  1  0  0  0  0
 46 47  2  0  0  0  0
 48 49  2  0  0  0  0
 48 50  1  0  0  0  0
 50 51  2  0  0  0  0
 50 52  1  0  0  0  0
 52 53  2  0  0  0  0
M  END
$$$$