
 OpenBabel10232009443D

 77 89  0  0  1  0  0  0  0  0999 V2000
    2.0324   -0.6407   -2.9844 O   0  0  0  0  0  0  0  0  0  0  0  0
    1.8829   -0.2470   -1.6048 C   0  0  3  0  0  0  0  0  0  0  0  0
    2.5672    1.1063   -1.3123 C   0  0  3  0  0  0  0  0  0  0  0  0
    4.0038    1.0210   -1.4552 O   0  0  0  0  0  0  0  0  0  0  0  0
    4.6591   -0.1361   -1.1562 C   0  0  0  0  0  0  0  0  0  0  0  0
    4.0038   -1.2864   -0.7492 C   0  0  0  0  0  0  0  0  0  0  0  0
    2.5070   -1.3602   -0.7584 C   0  0  3  0  0  0  0  0  0  0  0  0
    2.1398   -2.6499   -1.2870 O   0  0  0  0  0  0  0  0  0  0  0  0
    4.7759   -2.3789   -0.3454 C   0  0  0  0  0  0  0  0  0  0  0  0
    6.1848   -2.4272   -0.4073 C   0  0  0  0  0  0  0  0  0  0  0  0
    6.8408   -1.3333   -1.0168 C   0  0  0  0  0  0  0  0  0  0  0  0
    6.0502   -0.1800   -1.3038 C   0  0  0  0  0  0  0  0  0  0  0  0
    6.6664    0.9402   -1.7314 F   0  0  0  0  0  0  0  0  0  0  0  0
    8.2065   -1.5269   -1.2852 C   0  0  0  0  0  0  0  0  0  0  0  0
    9.1718   -0.3228   -2.0668 Cl  0  0  0  0  0  0  0  0  0  0  0  0
    8.8847   -2.7405   -0.9743 C   0  0  0  0  0  0  0  0  0  0  0  0
    8.3351   -3.7801   -0.1957 C   0  0  0  0  0  0  0  0  0  0  0  0
    6.9584   -3.5276    0.1032 C   0  0  0  0  0  0  0  0  0  0  0  0
    6.0795   -4.4479    1.3156 Cl  0  0  0  0  0  0  0  0  0  0  0  0
    9.1815   -5.0258    0.2424 C   0  0  0  0  0  0  0  0  0  0  0  0
    8.5496   -6.1685    0.8278 C   0  0  0  0  0  0  0  0  0  0  0  0
    9.2209   -7.2624    1.5020 C   0  0  0  0  0  0  0  0  0  0  0  0
    8.7267   -8.3342    2.4808 C   0  0  0  0  0  0  0  0  0  0  0  0
    9.6485   -9.2627    2.9867 C   0  0  0  0  0  0  0  0  0  0  0  0
    9.3941   -9.9997    4.1707 N   0  0  0  0  0  0  0  0  0  0  0  0
   10.9195   -9.2425    2.4330 C   0  0  0  0  0  0  0  0  0  0  0  0
   11.3355   -8.3457    1.5332 N   0  0  0  0  0  0  0  0  0  0  0  0
   10.5747   -7.3267    1.1391 N   0  3  0  0  0  0  0  0  0  0  0  0
   11.1917   -6.3532    0.3812 N   0  3  0  0  0  0  0  0  0  0  0  0
   10.6046   -5.1439    0.1204 C   0  0  0  0  0  0  0  0  0  0  0  0
   11.5497   -4.0254   -0.2539 C   0  0  0  0  0  0  0  0  0  0  0  0
   12.7700   -6.7032   -0.2457 Cl  0  0  0  0  0  0  0  0  0  0  0  0
    7.2399   -8.5003    3.0958 N   0  3  0  0  0  0  0  0  0  0  0  0
    6.6776   -9.7708    3.4398 N   0  3  0  0  0  0  0  0  0  0  0  0
    7.2371  -11.2432    2.7168 Cl  0  0  0  0  0  0  0  0  0  0  0  0
    5.4870   -9.9038    4.1532 C   0  0  0  0  0  0  0  0  0  0  0  0
    4.5757   -8.8422    4.3913 C   0  0  0  0  0  0  0  0  0  0  0  0
    5.0235   -7.6165    3.9231 C   0  0  0  0  0  0  0  0  0  0  0  0
    6.4213   -7.4272    3.4176 C   0  0  0  0  0  0  0  0  0  0  0  0
    6.9022   -6.1260    3.5237 N   0  0  0  0  0  0  0  0  0  0  0  0
    4.1521   -6.6048    4.0025 N   0  0  0  0  0  0  0  0  0  0  0  0
    2.8753   -6.6695    4.4464 N   0  3  0  0  0  0  0  0  0  0  0  0
    2.3725   -7.8122    5.0268 C   0  0  0  0  0  0  0  0  0  0  0  0
    3.2837   -8.9022    5.0298 N   0  3  0  0  0  0  0  0  0  0  0  0
    2.9127  -10.0458    5.7040 N   0  0  0  0  0  0  0  0  0  0  0  0
    1.7150  -10.1468    6.3456 N   0  3  0  0  0  0  0  0  0  0  0  0
    1.3770  -11.3709    7.1615 C   0  0  0  0  0  0  0  0  0  0  0  0
    0.8176   -9.1560    6.2508 C   0  0  0  0  0  0  0  0  0  0  0  0
    1.1271   -8.0170    5.5927 N   0  3  0  0  0  0  0  0  0  0  0  0
   -0.1723   -6.8963    5.5132 Cl  0  0  0  0  0  0  0  0  0  0  0  0
    2.0213   -5.1980    4.2539 Cl  0  0  0  0  0  0  0  0  0  0  0  0
    2.1354    1.7759    0.0469 C   0  0  3  0  0  0  0  0  0  0  0  0
    0.6108    2.0517    0.0316 C   0  0  0  0  0  0  0  0  0  0  0  0
    0.1094    2.6949    1.3201 C   0  0  0  0  0  0  0  0  0  0  0  0
    0.8868    3.9201    1.6861 C   0  0  0  0  0  0  0  0  0  0  0  0
    2.2058    4.0730    1.2885 C   0  0  0  0  0  0  0  0  0  0  0  0
    2.9072    3.1099    0.3316 C   0  0  3  0  0  0  0  0  0  0  0  0
    4.3546    2.8644    0.8376 C   0  0  3  0  0  0  0  0  0  0  0  0
    4.3338    1.8956    1.8109 F   0  0  0  0  0  0  0  0  0  0  0  0
    5.0869    4.0946    1.3959 C   0  0  0  0  0  0  0  0  0  0  0  0
    4.3031    5.3838    1.1453 C   0  0  3  0  0  0  0  0  0  0  0  0
    2.9296    5.1904    1.7580 C   0  0  0  0  0  0  0  0  0  0  0  0
    2.4055    6.0622    2.7519 C   0  0  0  0  0  0  0  0  0  0  0  0
    1.0091    6.0135    3.0357 C   0  0  0  0  0  0  0  0  0  0  0  0
    0.2955    4.9145    2.4878 C   0  0  0  0  0  0  0  0  0  0  0  0
    0.2533    7.0171    3.8686 C   0  0  0  0  0  0  0  0  0  0  0  0
   -0.8703    6.6401    4.6421 C   0  0  0  0  0  0  0  0  0  0  0  0
   -1.6298    7.5704    5.3807 C   0  0  0  0  0  0  0  0  0  0  0  0
   -2.9079    7.1623    6.0547 C   0  0  0  0  0  0  0  0  0  0  0  0
   -1.1870    8.8882    5.4795 C   0  0  0  0  0  0  0  0  0  0  0  0
   -0.0981    9.2992    4.7251 C   0  0  0  0  0  0  0  0  0  0  0  0
    0.5488    8.3927    3.8828 C   0  0  0  0  0  0  0  0  0  0  0  0
    1.4343    8.9119    3.0216 F   0  0  0  0  0  0  0  0  0  0  0  0
    3.3940    6.9437    3.5230 C   0  0  3  0  0  0  0  0  0  0  0  0
    4.8712    6.7792    3.1307 C   0  0  0  0  0  0  0  0  0  0  0  0
    5.0115    6.6450    1.6285 C   0  0  0  0  0  0  0  0  0  0  0  0
    3.2912    6.5653    5.2825 Cl  0  0  0  0  0  0  0  0  0  0  0  0
  1  2  1  0  0  0  0
  2  3  1  0  0  0  0
  2  7  1  0  0  0  0
  3  4  1  0  0  0  0
  3 52  1  0  0  0  0
  4  5  1  0  0  0  0
  5  6  2  0  0  0  0
  5 12  1  0  0  0  0
  6  7  1  0  0  0  0
  6  9  1  0  0  0  0
  7  8  1  0  0  0  0
  9 10  2  0  0  0  0
 10 11  1  0  0  0  0
 10 18  1  0  0  0  0
 11 12  2  0  0  0  0
 11 14  1  0  0  0  0
 12 13  1  0  0  0  0
 14 15  1  0  0  0  0
 14 16  2  0  0  0  0
 16 17  1  0  0  0  0
 17 18  2  0  0  0  0
 17 20  1  0  0  0  0
 18 19  1  0  0  0  0
 20 21  2  0  0  0  0
 20 30  1  0  0  0  0
 21 22  1  0  0  0  0
 22 23  2  0  0  0  0
 22 28  1  0  0  0  0
 23 24  1  0  0  0  0
 23 33  1  0  0  0  0
 24 25  1  0  0  0  0
 24 26  2  0  0  0  0
 26 27  1  0  0  0  0
 27 28  2  0  0  0  0
 28 29  1  0  0  0  0
 29 30  2  0  0  0  0
 29 32  1  0  0  0  0
 30 31  1  0  0  0  0
 33 34  2  0  0  0  0
 33 39  1  0  0  0  0
 34 35  1  0  0  0  0
 34 36  1  0  0  0  0
 36 37  2  0  0  0  0
 37 38  1  0  0  0  0
 37 44  1  0  0  0  0
 38 39  2  0  0  0  0
 38 41  1  0  0  0  0
 39 40  1  0  0  0  0
 41 42  2  0  0  0  0
 42 43  1  0  0  0  0
 42 51  1  0  0  0  0
 43 44  2  0  0  0  0
 43 49  1  0  0  0  0
 44 45  1  0  0  0  0
 45 46  2  0  0  0  0
 46 47  1  0  0  0  0
 46 48  1  0  0  0  0
 48 49  2  0  0  0  0
 49 50  1  0  0  0  0
 52 53  1  0  0  0  0
 52 57  1  0  0  0  0
 53 54  1  0  0  0  0
 54 55  1  0  0  0  0
 55 56  2  0  0  0  0
 55 65  1  0  0  0  0
 56 57  1  0  0  0  0
 56 62  1  0  0  0  0
 57 58  1  0  0  0  0
 58 59  1  0  0  0  0
 58 60  1  0  0  0  0
 60 61  1  0  0  0  0
 61 62  1  0  0  0  0
 61 76  1  0  0  0  0
 62 63  2  0  0  0  0
 63 64  1  0  0  0  0
 63 74  1  0  0  0  0
 64 65  2  0  0  0  0
 64 66  1  0  0  0  0
 66 67  2  0  0  0  0
 66 72  1  0  0  0  0
 67 68  1  0  0  0  0
 68 69  1  0  0  0  0
 68 70  2  0  0  0  0
 70 71  1  0  0  0  0
 71 72  2  0  0  0  0
 72 73  1  0  0  0  0
 74 75  1  0  0  0  0
 74 77  1  0  0  0  0
 75 76  1  0  0  0  0
M  CHG  8  28   1  29   1  33   1  34   1  42   1  44   1  46   1  49   1
M  END
$$$$