
 OpenBabel11142001303D

 52 60  0  0  1  0  0  0  0  0999 V2000
   -1.1651   -2.3567    5.5314 O   0  0  0  0  0  0  0  0  0  0  0  0
   -0.5859   -2.4407    4.2915 C   0  0  0  0  0  0  0  0  0  0  0  0
    0.0553   -1.4086    3.7302 C   0  0  0  0  0  0  0  0  0  0  0  0
    0.1597   -0.1942    4.4001 O   0  0  0  0  0  0  0  0  0  0  0  0
    1.3293    0.5662    4.0587 C   0  0  2  0  0  0  0  0  0  0  0  0
    1.5254    1.6788    4.9397 O   0  0  0  0  0  0  0  0  0  0  0  0
    2.2000    1.3999    6.1330 C   0  0  0  0  0  0  0  0  0  0  0  0
    2.9359    2.3387    6.7762 C   0  0  0  0  0  0  0  0  0  0  0  0
    3.6105    2.0846    7.9734 O   0  0  0  0  0  0  0  0  0  0  0  0
    3.5913    0.8148    8.5244 C   0  0  0  0  0  0  0  0  0  0  0  0
    2.8878   -0.1773    7.9661 C   0  0  0  0  0  0  0  0  0  0  0  0
    2.0794    0.0060    6.7297 C   0  0  0  0  0  0  0  0  0  0  0  0
    2.9599   -1.5246    8.5970 C   0  0  0  0  0  0  0  0  0  0  0  0
    2.4115   -2.5478    8.0147 N   0  0  0  0  0  0  0  0  0  0  0  0
    2.5205   -3.7502    8.6471 C   0  0  0  0  0  0  0  0  0  0  0  0
    2.1110   -4.7550    7.9653 N   0  0  0  0  0  0  0  0  0  0  0  0
    3.0106   -3.9975    9.8915 N   0  0  0  0  0  0  0  0  0  0  0  0
    3.5628   -2.9939   10.4624 C   0  0  0  0  0  0  0  0  0  0  0  0
    3.6816   -1.6502    9.8988 C   0  0  0  0  0  0  0  0  0  0  0  0
    4.3501   -0.5781   10.3785 C   0  0  0  0  0  0  0  0  0  0  0  0
    4.3257    0.6153    9.6629 N   0  0  0  0  0  0  0  0  0  0  0  0
    5.1392   -0.5432   11.6380 C   0  0  0  0  0  0  0  0  0  0  0  0
    5.7971    0.6610   12.0830 O   0  0  0  0  0  0  0  0  0  0  0  0
    4.6624    0.1466   12.8045 O   0  0  0  0  0  0  0  0  0  0  0  0
    4.0662   -3.1829   11.6847 O   0  0  0  0  0  0  0  0  0  0  0  0
    3.1928    3.7134    6.3000 C   0  0  0  0  0  0  0  0  0  0  0  0
    4.2938    3.8237    5.5264 N   0  0  0  0  0  0  0  0  0  0  0  0
    4.7244    5.0086    5.1906 N   0  0  0  0  0  0  0  0  0  0  0  0
    4.1307    6.1084    5.5939 N   0  0  0  0  0  0  0  0  0  0  0  0
    3.0326    6.0502    6.3544 C   0  0  0  0  0  0  0  0  0  0  0  0
    2.4944    4.8328    6.7564 C   0  0  0  0  0  0  0  0  0  0  0  0
    1.3535    4.8286    7.5929 C   0  0  0  0  0  0  0  0  0  0  0  0
    0.7622    6.0352    7.9957 C   0  0  0  0  0  0  0  0  0  0  0  0
    1.2645    7.2620    7.5725 C   0  0  0  0  0  0  0  0  0  0  0  0
    2.4224    7.2366    6.7798 C   0  0  0  0  0  0  0  0  0  0  0  0
    0.7668    8.4779    8.0307 N   0  0  0  0  0  0  0  0  0  0  0  0
   -0.5803    8.5551    8.6356 C   0  0  2  0  0  0  0  0  0  0  0  0
   -0.9781    7.3124    9.3873 C   0  0  0  0  0  0  0  0  0  0  0  0
   -1.8413    7.3140   10.2583 O   0  0  0  0  0  0  0  0  0  0  0  0
   -0.4070    6.0059    8.8830 C   0  0  0  0  0  0  0  0  0  0  0  0
   -0.9329    4.9472    9.1977 O   0  0  0  0  0  0  0  0  0  0  0  0
   -1.6183    8.9680    7.6314 C   0  0  1  0  0  0  0  0  0  0  0  0
   -1.3908   10.2444    6.9807 O   0  0  0  0  0  0  0  0  0  0  0  0
   -2.0910    7.9241    6.7818 O   0  0  0  0  0  0  0  0  0  0  0  0
   -3.0029    8.4776    7.6176 C   0  0  0  0  0  0  0  0  0  0  0  0
   -4.0358    9.0400    7.3494 O   0  0  0  0  0  0  0  0  0  0  0  0
    1.1501    0.9342    2.5973 C   0  0  0  0  0  0  0  0  0  0  0  0
    0.9835    2.0420    2.1180 O   0  0  0  0  0  0  0  0  0  0  0  0
    1.1623   -0.3137    1.7456 C   0  0  0  0  0  0  0  0  0  0  0  0
    1.6366   -0.2990    0.6225 O   0  0  0  0  0  0  0  0  0  0  0  0
    0.6608   -1.6037    2.3774 C   0  0  0  0  0  0  0  0  0  0  0  0
    0.8069   -2.6893    1.8415 O   0  0  0  0  0  0  0  0  0  0  0  0
  1  2  1  0  0  0  0
  2  3  2  0  0  0  0
  3  4  1  0  0  0  0
  3 51  1  0  0  0  0
  4  5  1  0  0  0  0
  5  6  1  1  0  0  0
  5 47  1  0  0  0  0
  6  7  1  0  0  0  0
  7  8  2  0  0  0  0
  7 12  1  0  0  0  0
  8  9  1  0  0  0  0
  8 26  1  0  0  0  0
  9 10  1  0  0  0  0
 10 11  2  0  0  0  0
 10 21  1  0  0  0  0
 11 12  1  0  0  0  0
 11 13  1  0  0  0  0
 13 14  2  0  0  0  0
 13 19  1  0  0  0  0
 14 15  1  0  0  0  0
 15 16  2  0  0  0  0
 15 17  1  0  0  0  0
 17 18  2  0  0  0  0
 18 19  1  0  0  0  0
 18 25  1  0  0  0  0
 19 20  2  0  0  0  0
 20 21  1  0  0  0  0
 20 22  1  0  0  0  0
 22 23  1  0  0  0  0
 22 24  1  0  0  0  0
 23 24  1  0  0  0  0
 26 27  2  0  0  0  0
 26 31  1  0  0  0  0
 27 28  1  0  0  0  0
 28 29  2  0  0  0  0
 29 30  1  0  0  0  0
 30 31  2  0  0  0  0
 30 35  1  0  0  0  0
 31 32  1  0  0  0  0
 32 33  2  0  0  0  0
 33 34  1  0  0  0  0
 33 40  1  0  0  0  0
 34 35  2  0  0  0  0
 34 36  1  0  0  0  0
 37 36  1  6  0  0  0
 37 38  1  0  0  0  0
 37 42  1  0  0  0  0
 38 39  2  0  0  0  0
 38 40  1  0  0  0  0
 40 41  2  0  0  0  0
 42 43  1  6  0  0  0
 42 44  1  0  0  0  0
 42 45  1  0  0  0  0
 44 45  1  0  0  0  0
 45 46  2  0  0  0  0
 47 48  2  0  0  0  0
 47 49  1  0  0  0  0
 49 50  2  0  0  0  0
 49 51  1  0  0  0  0
 51 52  2  0  0  0  0
M  END
$$$$