
 OpenBabel11212019593D

 54 62  0  0  1  0  0  0  0  0999 V2000
   -1.2222    0.0235   -5.3511 O   0  0  0  0  0  0  0  0  0  0  0  0
   -0.9202    0.4960   -4.1000 C   0  0  0  0  0  0  0  0  0  0  0  0
   -0.2510   -0.2133   -3.1835 C   0  0  0  0  0  0  0  0  0  0  0  0
    0.1355   -1.5244   -3.4103 O   0  0  0  0  0  0  0  0  0  0  0  0
    1.4567   -1.7930   -2.9409 C   0  0  2  0  0  0  0  0  0  0  0  0
    1.9058   -3.0893   -3.4285 O   0  0  0  0  0  0  0  0  0  0  0  0
    2.0634   -3.2309   -4.8157 C   0  0  0  0  0  0  0  0  0  0  0  0
    2.0159   -4.4363   -5.4456 C   0  0  0  0  0  0  0  0  0  0  0  0
    2.1470   -4.5249   -6.8364 O   0  0  0  0  0  0  0  0  0  0  0  0
    2.4306   -3.4227   -7.6255 C   0  0  0  0  0  0  0  0  0  0  0  0
    2.6098   -2.2138   -7.0749 C   0  0  0  0  0  0  0  0  0  0  0  0
    2.3586   -1.9752   -5.6181 C   0  0  0  0  0  0  0  0  0  0  0  0
    3.0725   -1.0334   -7.8853 C   0  0  3  0  0  0  0  0  0  0  0  0
    4.3744   -0.7148   -7.4185 O   0  0  0  0  0  0  0  0  0  0  0  0
    5.0944    0.2289   -8.0833 C   0  0  0  0  0  0  0  0  0  0  0  0
    6.1177    0.6934   -7.6093 O   0  0  0  0  0  0  0  0  0  0  0  0
    4.6063    0.6132   -9.2858 O   0  0  0  0  0  0  0  0  0  0  0  0
    3.7227   -0.1867  -10.0613 C   0  0  3  0  0  0  0  0  0  0  0  0
    3.2178   -1.3712   -9.3205 C   0  0  0  0  0  0  0  0  0  0  0  0
    2.9523   -2.5979   -9.8220 C   0  0  0  0  0  0  0  0  0  0  0  0
    2.5491   -3.6243   -8.9824 O   0  3  0  0  0  0  0  0  0  0  0  0
    3.1071   -2.9672  -11.2469 C   0  0  0  0  0  0  0  0  0  0  0  0
    4.3381   -3.5174  -11.7307 O   0  0  0  0  0  0  0  0  0  0  0  0
    3.1703   -4.3539  -11.6272 O   0  0  0  0  0  0  0  0  0  0  0  0
    2.5713    0.5720  -10.3702 O   0  0  0  0  0  0  0  0  0  0  0  0
    1.8114   -5.7796   -4.7879 C   0  0  0  0  0  0  0  0  0  0  0  0
    2.3442   -5.9975   -3.5191 C   0  0  0  0  0  0  0  0  0  0  0  0
    2.1124   -7.1343   -2.8567 N   0  3  0  0  0  0  0  0  0  0  0  0
    2.6396   -7.3006   -1.6288 F   0  0  0  0  0  0  0  0  0  0  0  0
    1.3890   -8.1109   -3.3545 N   0  0  0  0  0  0  0  0  0  0  0  0
    0.9431   -8.0555   -4.6100 C   0  0  0  0  0  0  0  0  0  0  0  0
    1.1638   -6.9014   -5.3963 C   0  0  0  0  0  0  0  0  0  0  0  0
    0.7524   -6.9699   -6.7478 C   0  0  0  0  0  0  0  0  0  0  0  0
    0.1905   -8.1197   -7.3087 C   0  0  0  0  0  0  0  0  0  0  0  0
   -0.0550   -8.1573   -8.7517 C   0  0  0  0  0  0  0  0  0  0  0  0
    0.3655   -7.2559   -9.4657 O   0  0  0  0  0  0  0  0  0  0  0  0
   -0.7963   -9.3614   -9.2817 C   0  0  0  0  0  0  0  0  0  0  0  0
   -0.8286   -9.5749  -10.4832 O   0  0  0  0  0  0  0  0  0  0  0  0
   -1.4938  -10.1818   -8.2156 C   0  0  1  0  0  0  0  0  0  0  0  0
   -0.7212  -10.3304   -7.0072 O   0  0  0  0  0  0  0  0  0  0  0  0
   -0.0913   -9.2160   -6.5231 C   0  0  0  0  0  0  0  0  0  0  0  0
    0.2770   -9.1760   -5.1667 C   0  0  0  0  0  0  0  0  0  0  0  0
   -0.0845  -10.5964   -4.1093 S   0  0  0  0  0  0  0  0  0  0  0  0
   -2.8952   -9.6754   -7.9627 C   0  0  1  0  0  0  0  0  0  0  0  0
   -3.7266   -9.5170   -9.1256 O   0  0  0  0  0  0  0  0  0  0  0  0
   -3.5473  -10.2023   -6.7958 O   0  0  0  0  0  0  0  0  0  0  0  0
   -3.2898   -8.8954   -6.8075 C   0  0  0  0  0  0  0  0  0  0  0  0
   -2.6612   -8.1581   -6.0604 O   0  0  0  0  0  0  0  0  0  0  0  0
    1.5255   -1.6578   -1.4158 C   0  0  0  0  0  0  0  0  0  0  0  0
    2.2010   -2.3668   -0.6844 O   0  0  0  0  0  0  0  0  0  0  0  0
    0.7534   -0.4518   -0.9000 C   0  0  0  0  0  0  0  0  0  0  0  0
    0.6440   -0.2324    0.2930 O   0  0  0  0  0  0  0  0  0  0  0  0
    0.1178    0.4748   -1.9156 C   0  0  0  0  0  0  0  0  0  0  0  0
    0.0365    1.6770   -1.7427 O   0  0  0  0  0  0  0  0  0  0  0  0
  1  2  1  0  0  0  0
  2  3  2  0  0  0  0
  3  4  1  0  0  0  0
  3 53  1  0  0  0  0
  4  5  1  0  0  0  0
  5  6  1  1  0  0  0
  5 49  1  0  0  0  0
  6  7  1  0  0  0  0
  7  8  2  0  0  0  0
  7 12  1  0  0  0  0
  8  9  1  0  0  0  0
  8 26  1  0  0  0  0
  9 10  1  0  0  0  0
 10 11  2  0  0  0  0
 10 21  1  0  0  0  0
 11 12  1  0  0  0  0
 11 13  1  0  0  0  0
 13 14  1  0  0  0  0
 13 19  1  0  0  0  0
 14 15  1  0  0  0  0
 15 16  2  0  0  0  0
 15 17  1  0  0  0  0
 17 18  1  0  0  0  0
 18 19  1  0  0  0  0
 18 25  1  0  0  0  0
 19 20  2  0  0  0  0
 20 21  1  0  0  0  0
 20 22  1  0  0  0  0
 22 23  1  0  0  0  0
 22 24  1  0  0  0  0
 23 24  1  0  0  0  0
 26 27  2  0  0  0  0
 26 32  1  0  0  0  0
 27 28  1  0  0  0  0
 28 29  1  0  0  0  0
 28 30  2  0  0  0  0
 30 31  1  0  0  0  0
 31 32  2  0  0  0  0
 31 42  1  0  0  0  0
 32 33  1  0  0  0  0
 33 34  2  0  0  0  0
 34 35  1  0  0  0  0
 34 41  1  0  0  0  0
 35 36  2  0  0  0  0
 35 37  1  0  0  0  0
 37 38  2  0  0  0  0
 39 37  1  6  0  0  0
 39 40  1  0  0  0  0
 39 44  1  0  0  0  0
 40 41  1  0  0  0  0
 41 42  2  0  0  0  0
 42 43  1  0  0  0  0
 44 45  1  6  0  0  0
 44 46  1  0  0  0  0
 44 47  1  0  0  0  0
 46 47  1  0  0  0  0
 47 48  2  0  0  0  0
 49 50  2  0  0  0  0
 49 51  1  0  0  0  0
 51 52  2  0  0  0  0
 51 53  1  0  0  0  0
 53 54  2  0  0  0  0
M  CHG  2  21   1  28   1
M  END
$$$$