
 OpenBabel11272001103D

 54 62  0  0  1  0  0  0  0  0999 V2000
   -1.6441    3.6824   -2.8209 F   0  0  0  0  0  0  0  0  0  0  0  0
   -1.0446    3.0704   -1.7824 C   0  0  0  0  0  0  0  0  0  0  0  0
   -0.0476    2.2070   -1.9733 C   0  0  0  0  0  0  0  0  0  0  0  0
    0.3861    1.9088   -3.2498 O   0  0  0  0  0  0  0  0  0  0  0  0
    1.7290    1.4126   -3.3299 C   0  0  2  0  0  0  0  0  0  0  0  0
    2.1217    1.2687   -4.6946 O   0  0  0  0  0  0  0  0  0  0  0  0
    2.1104    2.4267   -5.4732 C   0  0  0  0  0  0  0  0  0  0  0  0
    1.8931    2.3711   -6.8069 C   0  0  0  0  0  0  0  0  0  0  0  0
    1.9299    3.4923   -7.6348 O   0  0  0  0  0  0  0  0  0  0  0  0
    2.1501    4.7428   -7.0721 C   0  0  0  0  0  0  0  0  0  0  0  0
    2.3454    4.9096   -5.7537 C   0  0  0  0  0  0  0  0  0  0  0  0
    2.3796    3.7563   -4.8098 C   0  0  0  0  0  0  0  0  0  0  0  0
    2.4790    6.2899   -5.1585 C   0  0  3  0  0  0  0  0  0  0  0  0
    3.6904    6.3250   -4.4084 O   0  0  0  0  0  0  0  0  0  0  0  0
    4.1893    7.4986   -3.9499 C   0  0  0  0  0  0  0  0  0  0  0  0
    5.0752    7.5215   -3.1054 O   0  0  0  0  0  0  0  0  0  0  0  0
    3.6938    8.6411   -4.4818 O   0  0  0  0  0  0  0  0  0  0  0  0
    2.6943    8.6831   -5.4906 C   0  0  3  0  0  0  0  0  0  0  0  0
    2.5078    7.3826   -6.1635 C   0  0  0  0  0  0  0  0  0  0  0  0
    2.3598    7.1415   -7.4859 C   0  0  0  0  0  0  0  0  0  0  0  0
    2.1419    5.8349   -7.9051 N   0  0  0  0  0  0  0  0  0  0  0  0
    2.3938    8.1807   -8.5399 C   0  0  0  0  0  0  0  0  0  0  0  0
    3.6250    8.5661   -9.1716 O   0  0  0  0  0  0  0  0  0  0  0  0
    2.6186    7.8608   -9.9239 O   0  0  0  0  0  0  0  0  0  0  0  0
    1.4555    9.0288   -4.8896 O   0  0  0  0  0  0  0  0  0  0  0  0
    1.5604    1.1105   -7.5047 C   0  0  0  0  0  0  0  0  0  0  0  0
    2.6317    0.4278   -7.9777 N   0  0  0  0  0  0  0  0  0  0  0  0
    2.3980   -0.7797   -8.5227 C   0  0  0  0  0  0  0  0  0  0  0  0
    3.4525   -1.4674   -8.9833 F   0  0  0  0  0  0  0  0  0  0  0  0
    1.1497   -1.3620   -8.6171 C   0  0  0  0  0  0  0  0  0  0  0  0
    0.0438   -0.6678   -8.1202 C   0  0  0  0  0  0  0  0  0  0  0  0
    0.2262    0.6238   -7.5792 C   0  0  0  0  0  0  0  0  0  0  0  0
   -0.9289    1.3168   -7.1376 C   0  0  0  0  0  0  0  0  0  0  0  0
   -2.1916    0.6981   -7.1221 C   0  0  0  0  0  0  0  0  0  0  0  0
   -3.3608    1.4295   -6.6219 C   0  0  0  0  0  0  0  0  0  0  0  0
   -3.2905    2.6050   -6.2999 O   0  0  0  0  0  0  0  0  0  0  0  0
   -4.6641    0.6701   -6.5256 C   0  0  0  0  0  0  0  0  0  0  0  0
   -5.7182    1.2532   -6.3111 O   0  0  0  0  0  0  0  0  0  0  0  0
   -4.5332   -0.8312   -6.6317 C   0  0  1  0  0  0  0  0  0  0  0  0
   -3.5157   -1.3112   -7.5141 O   0  0  0  0  0  0  0  0  0  0  0  0
   -2.3470   -0.6050   -7.5668 C   0  0  0  0  0  0  0  0  0  0  0  0
   -1.2375   -1.2522   -8.1143 C   0  0  0  0  0  0  0  0  0  0  0  0
   -1.3930   -2.4934   -8.6061 F   0  0  0  0  0  0  0  0  0  0  0  0
   -4.4086   -1.4524   -5.2724 C   0  0  1  0  0  0  0  0  0  0  0  0
   -3.2968   -0.9948   -4.4571 O   0  0  0  0  0  0  0  0  0  0  0  0
   -5.6470   -1.5927   -4.5721 O   0  0  0  0  0  0  0  0  0  0  0  0
   -5.0053   -2.7315   -4.9037 C   0  0  0  0  0  0  0  0  0  0  0  0
   -4.6195   -3.6285   -4.1922 O   0  0  0  0  0  0  0  0  0  0  0  0
    1.7515    0.0897   -2.5768 C   0  0  0  0  0  0  0  0  0  0  0  0
    2.0516   -1.0067   -3.0199 O   0  0  0  0  0  0  0  0  0  0  0  0
    1.2953    0.2647   -1.1434 C   0  0  0  0  0  0  0  0  0  0  0  0
    1.5120   -0.5885   -0.3000 O   0  0  0  0  0  0  0  0  0  0  0  0
    0.5365    1.5312   -0.7872 C   0  0  0  0  0  0  0  0  0  0  0  0
    0.4557    1.9529    0.3523 O   0  0  0  0  0  0  0  0  0  0  0  0
  1  2  1  0  0  0  0
  2  3  2  0  0  0  0
  3  4  1  0  0  0  0
  3 53  1  0  0  0  0
  4  5  1  0  0  0  0
  5  6  1  6  0  0  0
  5 49  1  0  0  0  0
  6  7  1  0  0  0  0
  7  8  2  0  0  0  0
  7 12  1  0  0  0  0
  8  9  1  0  0  0  0
  8 26  1  0  0  0  0
  9 10  1  0  0  0  0
 10 11  2  0  0  0  0
 10 21  1  0  0  0  0
 11 12  1  0  0  0  0
 11 13  1  0  0  0  0
 13 14  1  0  0  0  0
 13 19  1  0  0  0  0
 14 15  1  0  0  0  0
 15 16  2  0  0  0  0
 15 17  1  0  0  0  0
 17 18  1  0  0  0  0
 18 19  1  0  0  0  0
 18 25  1  0  0  0  0
 19 20  2  0  0  0  0
 20 21  1  0  0  0  0
 20 22  1  0  0  0  0
 22 23  1  0  0  0  0
 22 24  1  0  0  0  0
 23 24  1  0  0  0  0
 26 27  2  0  0  0  0
 26 32  1  0  0  0  0
 27 28  1  0  0  0  0
 28 29  1  0  0  0  0
 28 30  2  0  0  0  0
 30 31  1  0  0  0  0
 31 32  2  0  0  0  0
 31 42  1  0  0  0  0
 32 33  1  0  0  0  0
 33 34  2  0  0  0  0
 34 35  1  0  0  0  0
 34 41  1  0  0  0  0
 35 36  2  0  0  0  0
 35 37  1  0  0  0  0
 37 38  2  0  0  0  0
 39 37  1  1  0  0  0
 39 40  1  0  0  0  0
 39 44  1  0  0  0  0
 40 41  1  0  0  0  0
 41 42  2  0  0  0  0
 42 43  1  0  0  0  0
 44 45  1  1  0  0  0
 44 46  1  0  0  0  0
 44 47  1  0  0  0  0
 46 47  1  0  0  0  0
 47 48  2  0  0  0  0
 49 50  2  0  0  0  0
 49 51  1  0  0  0  0
 51 52  2  0  0  0  0
 51 53  1  0  0  0  0
 53 54  2  0  0  0  0
M  END
$$$$