
 OpenBabel11222001233D

 54 62  0  0  1  0  0  0  0  0999 V2000
    7.2541   -1.6122    4.2920 O   0  0  0  0  0  0  0  0  0  0  0  0
    6.9089   -0.3194    3.9814 C   0  0  0  0  0  0  0  0  0  0  0  0
    5.6488    0.0476    3.7222 C   0  0  0  0  0  0  0  0  0  0  0  0
    4.6447   -0.9044    3.7136 O   0  0  0  0  0  0  0  0  0  0  0  0
    3.3661   -0.4421    4.1144 C   0  0  2  0  0  0  0  0  0  0  0  0
    2.4089   -1.5131    4.0185 O   0  0  0  0  0  0  0  0  0  0  0  0
    2.6093   -2.6276    4.8232 C   0  0  0  0  0  0  0  0  0  0  0  0
    2.1792   -3.8590    4.4511 C   0  0  0  0  0  0  0  0  0  0  0  0
    2.3655   -4.9810    5.2808 O   0  0  0  0  0  0  0  0  0  0  0  0
    2.9484   -4.8338    6.5501 C   0  0  0  0  0  0  0  0  0  0  0  0
    3.3172   -3.6241    7.0066 C   0  0  0  0  0  0  0  0  0  0  0  0
    3.2239   -2.3909    6.1750 C   0  0  0  0  0  0  0  0  0  0  0  0
    3.8714   -3.4131    8.3863 C   0  0  3  0  0  0  0  0  0  0  0  0
    2.9048   -2.6772    9.1142 O   0  0  0  0  0  0  0  0  0  0  0  0
    3.1396   -2.4455   10.4350 C   0  0  0  0  0  0  0  0  0  0  0  0
    2.4988   -1.6118   11.0522 O   0  0  0  0  0  0  0  0  0  0  0  0
    4.1066   -3.1991   11.0128 O   0  0  0  0  0  0  0  0  0  0  0  0
    4.6254   -4.3982   10.4472 C   0  0  3  0  0  0  0  0  0  0  0  0
    4.0529   -4.6866    9.1077 C   0  0  0  0  0  0  0  0  0  0  0  0
    3.7096   -5.8840    8.5867 C   0  0  0  0  0  0  0  0  0  0  0  0
    3.1257   -5.9617    7.3271 O   0  3  0  0  0  0  0  0  0  0  0  0
    3.8909   -7.1678    9.3008 C   0  0  0  0  0  0  0  0  0  0  0  0
    2.8463   -7.7073   10.1180 O   0  0  0  0  0  0  0  0  0  0  0  0
    3.1849   -8.3437    8.8701 O   0  0  0  0  0  0  0  0  0  0  0  0
    6.0119   -4.2395   10.2233 O   0  0  0  0  0  0  0  0  0  0  0  0
    1.4312   -4.1034    3.1630 C   0  0  0  0  0  0  0  0  0  0  0  0
    0.5708   -3.0920    2.7112 C   0  0  0  0  0  0  0  0  0  0  0  0
   -0.1015   -3.1968    1.5649 N   0  3  0  0  0  0  0  0  0  0  0  0
   -0.8829   -2.1731    1.1693 F   0  0  0  0  0  0  0  0  0  0  0  0
   -0.0390   -4.2681    0.8102 N   0  0  0  0  0  0  0  0  0  0  0  0
    0.7188   -5.2987    1.1848 C   0  0  0  0  0  0  0  0  0  0  0  0
    1.4897   -5.2874    2.3691 C   0  0  0  0  0  0  0  0  0  0  0  0
    2.2469   -6.4614    2.6519 C   0  0  0  0  0  0  0  0  0  0  0  0
    2.2081   -7.6010    1.8197 C   0  0  0  0  0  0  0  0  0  0  0  0
    2.8979   -8.8527    2.1747 C   0  0  0  0  0  0  0  0  0  0  0  0
    3.3260   -9.1169    3.3702 N   0  0  0  0  0  0  0  0  0  0  0  0
    3.0633   -9.8957    1.0826 C   0  0  0  0  0  0  0  0  0  0  0  0
    3.6587  -10.9357    1.3261 O   0  0  0  0  0  0  0  0  0  0  0  0
    2.4779   -9.5453   -0.2677 C   0  0  1  0  0  0  0  0  0  0  0  0
    1.3961   -8.5972   -0.2440 O   0  0  0  0  0  0  0  0  0  0  0  0
    1.4705   -7.5724    0.6528 C   0  0  0  0  0  0  0  0  0  0  0  0
    0.7336   -6.4239    0.3625 C   0  0  0  0  0  0  0  0  0  0  0  0
    0.0016   -6.3983   -0.7634 F   0  0  0  0  0  0  0  0  0  0  0  0
    3.5482   -9.1813   -1.2706 C   0  0  1  0  0  0  0  0  0  0  0  0
    4.5289  -10.1943   -1.5651 O   0  0  0  0  0  0  0  0  0  0  0  0
    3.1278   -8.4103   -2.4012 O   0  0  0  0  0  0  0  0  0  0  0  0
    3.9528   -7.8105   -1.5314 C   0  0  0  0  0  0  0  0  0  0  0  0
    3.8251   -6.7922   -0.8664 O   0  0  0  0  0  0  0  0  0  0  0  0
    2.9223    0.6965    3.2242 C   0  0  0  0  0  0  0  0  0  0  0  0
    1.9076    0.7212    2.5454 O   0  0  0  0  0  0  0  0  0  0  0  0
    3.9060    1.8318    3.2989 C   0  0  0  0  0  0  0  0  0  0  0  0
    3.4979    2.9722    3.4260 O   0  0  0  0  0  0  0  0  0  0  0  0
    5.3806    1.4864    3.4096 C   0  0  0  0  0  0  0  0  0  0  0  0
    6.2511    2.3284    3.2834 O   0  0  0  0  0  0  0  0  0  0  0  0
  1  2  1  0  0  0  0
  2  3  2  0  0  0  0
  3  4  1  0  0  0  0
  3 53  1  0  0  0  0
  4  5  1  0  0  0  0
  5  6  1  6  0  0  0
  5 49  1  0  0  0  0
  6  7  1  0  0  0  0
  7  8  2  0  0  0  0
  7 12  1  0  0  0  0
  8  9  1  0  0  0  0
  8 26  1  0  0  0  0
  9 10  1  0  0  0  0
 10 11  2  0  0  0  0
 10 21  1  0  0  0  0
 11 12  1  0  0  0  0
 11 13  1  0  0  0  0
 13 14  1  0  0  0  0
 13 19  1  0  0  0  0
 14 15  1  0  0  0  0
 15 16  2  0  0  0  0
 15 17  1  0  0  0  0
 17 18  1  0  0  0  0
 18 19  1  0  0  0  0
 18 25  1  0  0  0  0
 19 20  2  0  0  0  0
 20 21  1  0  0  0  0
 20 22  1  0  0  0  0
 22 23  1  0  0  0  0
 22 24  1  0  0  0  0
 23 24  1  0  0  0  0
 26 27  2  0  0  0  0
 26 32  1  0  0  0  0
 27 28  1  0  0  0  0
 28 29  1  0  0  0  0
 28 30  2  0  0  0  0
 30 31  1  0  0  0  0
 31 32  2  0  0  0  0
 31 42  1  0  0  0  0
 32 33  1  0  0  0  0
 33 34  2  0  0  0  0
 34 35  1  0  0  0  0
 34 41  1  0  0  0  0
 35 36  2  0  0  0  0
 35 37  1  0  0  0  0
 37 38  2  0  0  0  0
 39 37  1  1  0  0  0
 39 40  1  0  0  0  0
 39 44  1  0  0  0  0
 40 41  1  0  0  0  0
 41 42  2  0  0  0  0
 42 43  1  0  0  0  0
 44 45  1  6  0  0  0
 44 46  1  0  0  0  0
 44 47  1  0  0  0  0
 46 47  1  0  0  0  0
 47 48  2  0  0  0  0
 49 50  2  0  0  0  0
 49 51  1  0  0  0  0
 51 52  2  0  0  0  0
 51 53  1  0  0  0  0
 53 54  2  0  0  0  0
M  CHG  2  21   1  28   1
M  END
$$$$