
 OpenBabel11232000033D

 53 62  0  0  1  0  0  0  0  0999 V2000
   -6.9093  -16.9830    9.5635 O   0  0  0  0  0  0  0  0  0  0  0  0
   -7.1313  -15.7558   10.1302 C   0  0  0  0  0  0  0  0  0  0  0  0
   -6.5256  -14.6363    9.7120 C   0  0  0  0  0  0  0  0  0  0  0  0
   -5.5774  -14.6677    8.7050 O   0  0  0  0  0  0  0  0  0  0  0  0
   -5.4663  -13.5160    7.8892 C   0  0  2  0  0  0  0  0  0  0  0  0
   -4.2844  -13.6164    7.0545 O   0  0  0  0  0  0  0  0  0  0  0  0
   -4.4097  -14.0432    5.7382 C   0  0  0  0  0  0  0  0  0  0  0  0
   -3.5615  -13.6636    4.7398 C   0  0  0  0  0  0  0  0  0  0  0  0
   -3.7407  -14.1528    3.4357 O   0  0  0  0  0  0  0  0  0  0  0  0
   -4.7409  -15.0612    3.1249 C   0  0  0  0  0  0  0  0  0  0  0  0
   -5.5996  -15.4780    4.0593 C   0  0  0  0  0  0  0  0  0  0  0  0
   -5.5435  -14.9940    5.4573 C   0  0  0  0  0  0  0  0  0  0  0  0
   -6.6709  -16.4720    3.7389 C   0  0  3  0  0  0  0  0  0  0  0  0
   -7.9481  -15.8766    4.1101 N   0  0  0  0  0  0  0  0  0  0  0  0
   -9.0366  -16.6555    3.9186 C   0  0  0  0  0  0  0  0  0  0  0  0
   -9.9771  -16.7523    4.7829 N   0  0  0  0  0  0  0  0  0  0  0  0
   -9.0829  -17.2765    2.7253 N   0  0  0  0  0  0  0  0  0  0  0  0
   -7.9081  -17.7878    2.0509 C   0  0  0  0  0  0  0  0  0  0  0  0
   -6.7543  -16.8603    2.2914 C   0  0  0  0  0  0  0  0  0  0  0  0
   -5.8566  -16.3964    1.3883 C   0  0  0  0  0  0  0  0  0  0  0  0
   -4.8531  -15.5231    1.8297 N   0  0  0  0  0  0  0  0  0  0  0  0
   -5.8477  -16.7476   -0.0583 C   0  0  0  0  0  0  0  0  0  0  0  0
   -5.0989  -17.8769   -0.5428 O   0  0  0  0  0  0  0  0  0  0  0  0
   -6.5325  -17.8863   -0.6139 O   0  0  0  0  0  0  0  0  0  0  0  0
   -2.4108  -12.6797    4.8650 C   0  0  0  0  0  0  0  0  0  0  0  0
   -2.1635  -12.1030    6.1068 C   0  0  0  0  0  0  0  0  0  0  0  0
   -1.2246  -11.1829    6.2996 N   0  3  0  0  0  0  0  0  0  0  0  0
   -1.0857  -10.6536    7.5304 F   0  0  0  0  0  0  0  0  0  0  0  0
   -0.4353  -10.7680    5.3433 N   0  0  0  0  0  0  0  0  0  0  0  0
   -0.5479  -11.2893    4.1225 C   0  0  0  0  0  0  0  0  0  0  0  0
   -1.5338  -12.2604    3.8057 C   0  0  0  0  0  0  0  0  0  0  0  0
   -1.5311  -12.7330    2.4607 C   0  0  0  0  0  0  0  0  0  0  0  0
   -0.5755  -12.3347    1.5186 C   0  0  0  0  0  0  0  0  0  0  0  0
    0.3880  -11.4130    1.8714 C   0  0  0  0  0  0  0  0  0  0  0  0
    0.3659  -10.8332    3.1488 C   0  0  0  0  0  0  0  0  0  0  0  0
    1.4288   -9.9709    3.5158 N   0  0  0  0  0  0  0  0  0  0  0  0
    1.3667  -11.0059    0.9930 O   0  0  0  0  0  0  0  0  0  0  0  0
    1.7218  -12.0171    0.0206 C   0  0  1  0  0  0  0  0  0  0  0  0
    0.6021  -12.5963   -0.7442 C   0  0  0  0  0  0  0  0  0  0  0  0
    0.6251  -12.8661   -1.9204 O   0  0  0  0  0  0  0  0  0  0  0  0
   -0.5729  -12.9263    0.1672 C   0  0  0  0  0  0  0  0  0  0  0  0
   -1.4557  -13.6884   -0.1817 O   0  0  0  0  0  0  0  0  0  0  0  0
    2.9240  -11.8107   -0.6763 O   0  0  0  0  0  0  0  0  0  0  0  0
    2.8945  -12.9175    0.2767 C   0  0  1  0  0  0  0  0  0  0  0  0
    3.3221  -12.6554    1.6657 O   0  0  0  0  0  0  0  0  0  0  0  0
    4.2299  -13.0358    0.7976 C   0  0  0  0  0  0  0  0  0  0  0  0
    5.0296  -13.9506    0.8325 O   0  0  0  0  0  0  0  0  0  0  0  0
   -5.3820  -12.2045    8.6560 C   0  0  0  0  0  0  0  0  0  0  0  0
   -4.6417  -11.2688    8.3735 O   0  0  0  0  0  0  0  0  0  0  0  0
   -6.4003  -12.1184    9.7638 C   0  0  0  0  0  0  0  0  0  0  0  0
   -6.8782  -11.0351   10.0581 O   0  0  0  0  0  0  0  0  0  0  0  0
   -6.8739  -13.3838   10.4379 C   0  0  0  0  0  0  0  0  0  0  0  0
   -7.4875  -13.3484   11.4903 O   0  0  0  0  0  0  0  0  0  0  0  0
  1  2  1  0  0  0  0
  2  3  2  0  0  0  0
  3  4  1  0  0  0  0
  3 52  1  0  0  0  0
  4  5  1  0  0  0  0
  5  6  1  1  0  0  0
  5 48  1  0  0  0  0
  6  7  1  0  0  0  0
  7  8  2  0  0  0  0
  7 12  1  0  0  0  0
  8  9  1  0  0  0  0
  8 25  1  0  0  0  0
  9 10  1  0  0  0  0
 10 11  2  0  0  0  0
 10 21  1  0  0  0  0
 11 12  1  0  0  0  0
 11 13  1  0  0  0  0
 13 14  1  0  0  0  0
 13 19  1  0  0  0  0
 14 15  1  0  0  0  0
 15 16  2  0  0  0  0
 15 17  1  0  0  0  0
 17 18  1  0  0  0  0
 18 19  1  0  0  0  0
 19 20  2  0  0  0  0
 20 21  1  0  0  0  0
 20 22  1  0  0  0  0
 22 23  1  0  0  0  0
 22 24  1  0  0  0  0
 23 24  1  0  0  0  0
 25 26  2  0  0  0  0
 25 31  1  0  0  0  0
 26 27  1  0  0  0  0
 27 28  1  0  0  0  0
 27 29  2  0  0  0  0
 29 30  1  0  0  0  0
 30 31  2  0  0  0  0
 30 35  1  0  0  0  0
 31 32  1  0  0  0  0
 32 33  2  0  0  0  0
 33 34  1  0  0  0  0
 33 41  1  0  0  0  0
 34 35  2  0  0  0  0
 34 37  1  0  0  0  0
 35 36  1  0  0  0  0
 38 37  1  1  0  0  0
 38 39  1  0  0  0  0
 38 43  1  0  0  0  0
 38 44  1  0  0  0  0
 39 40  2  0  0  0  0
 39 41  1  0  0  0  0
 41 42  2  0  0  0  0
 44 43  1  6  0  0  0
 44 45  1  0  0  0  0
 44 46  1  0  0  0  0
 45 46  1  0  0  0  0
 46 47  2  0  0  0  0
 48 49  2  0  0  0  0
 48 50  1  0  0  0  0
 50 51  2  0  0  0  0
 50 52  1  0  0  0  0
 52 53  2  0  0  0  0
M  CHG  1  27   1
M  END
$$$$