
 OpenBabel09242018493D

 51 59  0  0  1  0  0  0  0  0999 V2000
    7.5827    4.7957   -1.9917 O   0  0  0  0  0  0  0  0  0  0  0  0
    7.4241    3.5215   -2.4738 C   0  0  0  0  0  0  0  0  0  0  0  0
    6.2428    2.8921   -2.4825 C   0  0  0  0  0  0  0  0  0  0  0  0
    5.1102    3.4929   -1.9706 O   0  0  0  0  0  0  0  0  0  0  0  0
    3.9153    3.2059   -2.7009 C   0  0  2  0  0  0  0  0  0  0  0  0
    2.8275    4.0102   -2.2459 O   0  0  0  0  0  0  0  0  0  0  0  0
    2.8884    5.3880   -2.4303 C   0  0  0  0  0  0  0  0  0  0  0  0
    1.8678    6.1833   -2.0260 C   0  0  0  0  0  0  0  0  0  0  0  0
    1.9145    7.5822   -2.1512 O   0  0  0  0  0  0  0  0  0  0  0  0
    3.0257    8.1874   -2.7249 C   0  0  0  0  0  0  0  0  0  0  0  0
    4.0516    7.4607   -3.1844 C   0  0  0  0  0  0  0  0  0  0  0  0
    4.1094    5.9862   -3.0756 C   0  0  0  0  0  0  0  0  0  0  0  0
    5.2118    8.1576   -3.7928 C   0  0  0  0  0  0  0  0  0  0  0  0
    6.2151    7.4837   -4.2513 N   0  0  0  0  0  0  0  0  0  0  0  0
    7.2879    8.1569   -4.7931 C   0  0  0  0  0  0  0  0  0  0  0  0
    8.2395    7.4947   -5.1882 O   0  0  0  0  0  0  0  0  0  0  0  0
    7.3452    9.5328   -4.9011 N   0  0  0  0  0  0  0  0  0  0  0  0
    6.3530   10.2281   -4.4608 C   0  0  0  0  0  0  0  0  0  0  0  0
    5.1667    9.6322   -3.8444 C   0  0  0  0  0  0  0  0  0  0  0  0
    4.0982   10.2873   -3.3445 C   0  0  0  0  0  0  0  0  0  0  0  0
    3.0488    9.5591   -2.7933 N   0  0  0  0  0  0  0  0  0  0  0  0
    3.9464   11.7612   -3.3372 C   0  0  0  0  0  0  0  0  0  0  0  0
    3.3392   12.4578   -4.4359 O   0  0  0  0  0  0  0  0  0  0  0  0
    2.6674   12.3959   -3.1628 O   0  0  0  0  0  0  0  0  0  0  0  0
    0.5707    5.6765   -1.3970 C   0  0  1  0  0  0  0  0  0  0  0  0
   -0.0983    4.7665   -2.3621 N   0  0  0  0  0  0  0  0  0  0  0  0
   -0.2045    3.5422   -1.9851 C   0  0  0  0  0  0  0  0  0  0  0  0
    0.1691    3.0117   -0.7884 N   0  0  0  0  0  0  0  0  0  0  0  0
    0.6274    3.7862    0.2388 C   0  0  0  0  0  0  0  0  0  0  0  0
    0.7942    5.1029   -0.0094 C   0  0  0  0  0  0  0  0  0  0  0  0
    1.2048    6.0634    1.0865 C   0  0  0  0  0  0  0  0  0  0  0  0
    1.4157    5.3902    2.4172 C   0  0  0  0  0  0  0  0  0  0  0  0
    1.2814    4.0637    2.5645 C   0  0  0  0  0  0  0  0  0  0  0  0
    0.9029    3.2947    1.4934 N   0  0  0  0  0  0  0  0  0  0  0  0
    1.5042    3.3764    3.7214 O   0  0  0  0  0  0  0  0  0  0  0  0
    1.4963    4.1090    4.9446 C   0  0  2  0  0  0  0  0  0  0  0  0
    2.0005    5.5346    4.8822 C   0  0  0  0  0  0  0  0  0  0  0  0
    2.4486    6.1493    5.8423 O   0  0  0  0  0  0  0  0  0  0  0  0
    1.8199    6.2237    3.5525 C   0  0  0  0  0  0  0  0  0  0  0  0
    1.9947    7.4286    3.4460 O   0  0  0  0  0  0  0  0  0  0  0  0
    2.2231    3.2775    5.9653 C   0  0  1  0  0  0  0  0  0  0  0  0
    1.6548    1.9652    6.2070 O   0  0  0  0  0  0  0  0  0  0  0  0
    3.6468    3.3015    5.8332 O   0  0  0  0  0  0  0  0  0  0  0  0
    3.1416    3.7708    6.9991 C   0  0  0  0  0  0  0  0  0  0  0  0
    3.3503    3.3835    8.1225 O   0  0  0  0  0  0  0  0  0  0  0  0
    3.6151    1.7279   -2.5016 C   0  0  0  0  0  0  0  0  0  0  0  0
    2.5549    1.2336   -2.1429 O   0  0  0  0  0  0  0  0  0  0  0  0
    4.8092    0.8580   -2.8326 C   0  0  0  0  0  0  0  0  0  0  0  0
    4.6715   -0.3468   -2.9795 O   0  0  0  0  0  0  0  0  0  0  0  0
    6.1768    1.4980   -2.9945 C   0  0  0  0  0  0  0  0  0  0  0  0
    7.1107    0.9100   -3.5126 O   0  0  0  0  0  0  0  0  0  0  0  0
  1  2  1  0  0  0  0
  2  3  2  0  0  0  0
  3  4  1  0  0  0  0
  3 50  1  0  0  0  0
  4  5  1  0  0  0  0
  5  6  1  1  0  0  0
  5 46  1  0  0  0  0
  6  7  1  0  0  0  0
  7  8  2  0  0  0  0
  7 12  1  0  0  0  0
  8  9  1  0  0  0  0
  9 10  1  0  0  0  0
 10 11  2  0  0  0  0
 10 21  1  0  0  0  0
 11 12  1  0  0  0  0
 11 13  1  0  0  0  0
 13 14  2  0  0  0  0
 13 19  1  0  0  0  0
 14 15  1  0  0  0  0
 15 16  2  0  0  0  0
 15 17  1  0  0  0  0
 17 18  2  0  0  0  0
 18 19  1  0  0  0  0
 19 20  2  0  0  0  0
 20 21  1  0  0  0  0
 20 22  1  0  0  0  0
 22 23  1  0  0  0  0
 22 24  1  0  0  0  0
 23 24  1  0  0  0  0
 25  8  1  6  0  0  0
 25 26  1  0  0  0  0
 25 30  1  0  0  0  0
 26 27  2  0  0  0  0
 27 28  1  0  0  0  0
 28 29  1  0  0  0  0
 29 30  2  0  0  0  0
 29 34  1  0  0  0  0
 30 31  1  0  0  0  0
 31 32  1  0  0  0  0
 32 33  2  0  0  0  0
 32 39  1  0  0  0  0
 33 34  1  0  0  0  0
 33 35  1  0  0  0  0
 36 35  1  6  0  0  0
 36 37  1  0  0  0  0
 36 41  1  0  0  0  0
 37 38  2  0  0  0  0
 37 39  1  0  0  0  0
 39 40  2  0  0  0  0
 41 42  1  1  0  0  0
 41 43  1  0  0  0  0
 41 44  1  0  0  0  0
 43 44  1  0  0  0  0
 44 45  2  0  0  0  0
 46 47  2  0  0  0  0
 46 48  1  0  0  0  0
 48 49  2  0  0  0  0
 48 50  1  0  0  0  0
 50 51  2  0  0  0  0
M  END
$$$$