
 OpenBabel11242000423D

 53 62  0  0  1  0  0  0  0  0999 V2000
    0.2520   -2.7627  -11.4834 O   0  0  0  0  0  0  0  0  0  0  0  0
    1.0139   -2.0302  -10.6098 C   0  0  0  0  0  0  0  0  0  0  0  0
    1.1853   -2.3936   -9.3344 C   0  0  0  0  0  0  0  0  0  0  0  0
    0.5466   -3.5059   -8.8106 O   0  0  0  0  0  0  0  0  0  0  0  0
    1.4644   -4.3897   -8.1863 C   0  0  2  0  0  0  0  0  0  0  0  0
    0.7468   -5.4888   -7.6008 O   0  0  0  0  0  0  0  0  0  0  0  0
    0.9936   -6.7780   -8.0379 C   0  0  0  0  0  0  0  0  0  0  0  0
    0.7172   -7.8251   -7.2356 C   0  0  0  0  0  0  0  0  0  0  0  0
    0.8660   -9.1459   -7.6230 O   0  0  0  0  0  0  0  0  0  0  0  0
    1.2282   -9.4243   -8.9321 C   0  0  0  0  0  0  0  0  0  0  0  0
    1.5674   -8.4610   -9.8076 C   0  0  0  0  0  0  0  0  0  0  0  0
    1.5117   -7.0143   -9.4352 C   0  0  0  0  0  0  0  0  0  0  0  0
    1.9572   -8.8178  -11.2248 C   0  0  3  0  0  0  0  0  0  0  0  0
    3.3037   -8.3528  -11.4805 N   0  0  0  0  0  0  0  0  0  0  0  0
    4.0462   -8.8008  -12.5208 C   0  0  0  0  0  0  0  0  0  0  0  0
    5.4452   -7.9910  -13.0422 P   0  0  0  0  0  0  0  0  0  0  0  0
    3.6409   -9.9331  -13.1348 N   0  0  0  0  0  0  0  0  0  0  0  0
    2.3798  -10.5899  -12.9111 C   0  0  0  0  0  0  0  0  0  0  0  0
    1.9276  -10.2959  -11.5179 C   0  0  0  0  0  0  0  0  0  0  0  0
    1.5628  -11.2006  -10.5783 C   0  0  0  0  0  0  0  0  0  0  0  0
    1.2080  -10.7357   -9.3157 N   0  0  0  0  0  0  0  0  0  0  0  0
    1.5115  -12.6626  -10.7857 C   0  0  3  0  0  0  0  0  0  0  0  0
    1.1645  -13.5037   -9.6844 N   0  0  0  0  0  0  0  0  0  0  0  0
    2.3635  -13.4967  -10.0154 N   0  0  0  0  0  0  0  0  0  0  0  0
    0.2575   -7.6600   -5.8491 C   0  0  0  0  0  0  0  0  0  0  0  0
    1.2275   -7.5525   -4.8626 C   0  0  0  0  0  0  0  0  0  0  0  0
    0.8765   -7.3788   -3.5873 N   0  3  0  0  0  0  0  0  0  0  0  0
    1.8406   -7.2922   -2.6514 F   0  0  0  0  0  0  0  0  0  0  0  0
   -0.3834   -7.2795   -3.2013 N   0  0  0  0  0  0  0  0  0  0  0  0
   -1.3696   -7.3694   -4.1053 C   0  0  0  0  0  0  0  0  0  0  0  0
   -1.0950   -7.5799   -5.4710 C   0  0  0  0  0  0  0  0  0  0  0  0
   -2.1707   -7.6969   -6.3814 C   0  0  0  0  0  0  0  0  0  0  0  0
   -3.4955   -7.6042   -5.9443 C   0  0  0  0  0  0  0  0  0  0  0  0
   -3.7717   -7.3927   -4.6040 C   0  0  0  0  0  0  0  0  0  0  0  0
   -2.7113   -7.2329   -3.6858 C   0  0  0  0  0  0  0  0  0  0  0  0
   -3.0193   -7.1455   -2.3054 N   0  0  0  0  0  0  0  0  0  0  0  0
   -5.0450   -7.2811   -4.0994 O   0  0  0  0  0  0  0  0  0  0  0  0
   -6.1509   -7.5653   -4.9884 C   0  0  1  0  0  0  0  0  0  0  0  0
   -5.9607   -7.2885   -6.4172 C   0  0  0  0  0  0  0  0  0  0  0  0
   -6.7820   -6.7347   -7.1260 O   0  0  0  0  0  0  0  0  0  0  0  0
   -4.5980   -7.7019   -6.9068 C   0  0  0  0  0  0  0  0  0  0  0  0
   -4.4137   -8.0685   -8.0552 O   0  0  0  0  0  0  0  0  0  0  0  0
   -6.9475   -8.6800   -4.6790 O   0  0  0  0  0  0  0  0  0  0  0  0
   -7.5402   -7.3575   -4.4606 C   0  0  1  0  0  0  0  0  0  0  0  0
   -7.3978   -6.7623   -3.1041 O   0  0  0  0  0  0  0  0  0  0  0  0
   -8.4517   -7.4901   -3.3667 C   0  0  0  0  0  0  0  0  0  0  0  0
   -9.6445   -7.2879   -3.2279 O   0  0  0  0  0  0  0  0  0  0  0  0
    2.2232   -3.7656   -7.0276 C   0  0  0  0  0  0  0  0  0  0  0  0
    2.7458   -4.4001   -6.1163 O   0  0  0  0  0  0  0  0  0  0  0  0
    2.3141   -2.2611   -7.1135 C   0  0  0  0  0  0  0  0  0  0  0  0
    2.5200   -1.6060   -6.1057 O   0  0  0  0  0  0  0  0  0  0  0  0
    2.0925   -1.6007   -8.4605 C   0  0  0  0  0  0  0  0  0  0  0  0
    2.6677   -0.5802   -8.7885 O   0  0  0  0  0  0  0  0  0  0  0  0
  1  2  1  0  0  0  0
  2  3  2  0  0  0  0
  3  4  1  0  0  0  0
  3 52  1  0  0  0  0
  4  5  1  0  0  0  0
  5  6  1  1  0  0  0
  5 48  1  0  0  0  0
  6  7  1  0  0  0  0
  7  8  2  0  0  0  0
  7 12  1  0  0  0  0
  8  9  1  0  0  0  0
  8 25  1  0  0  0  0
  9 10  1  0  0  0  0
 10 11  2  0  0  0  0
 10 21  1  0  0  0  0
 11 12  1  0  0  0  0
 11 13  1  0  0  0  0
 13 14  1  0  0  0  0
 13 19  1  0  0  0  0
 14 15  1  0  0  0  0
 15 16  2  0  0  0  0
 15 17  1  0  0  0  0
 17 18  1  0  0  0  0
 18 19  1  0  0  0  0
 19 20  2  0  0  0  0
 20 21  1  0  0  0  0
 20 22  1  0  0  0  0
 22 23  1  0  0  0  0
 22 24  1  0  0  0  0
 23 24  2  0  0  0  0
 25 26  2  0  0  0  0
 25 31  1  0  0  0  0
 26 27  1  0  0  0  0
 27 28  1  0  0  0  0
 27 29  2  0  0  0  0
 29 30  1  0  0  0  0
 30 31  2  0  0  0  0
 30 35  1  0  0  0  0
 31 32  1  0  0  0  0
 32 33  2  0  0  0  0
 33 34  1  0  0  0  0
 33 41  1  0  0  0  0
 34 35  2  0  0  0  0
 34 37  1  0  0  0  0
 35 36  1  0  0  0  0
 38 37  1  1  0  0  0
 38 39  1  0  0  0  0
 38 43  1  0  0  0  0
 38 44  1  0  0  0  0
 39 40  2  0  0  0  0
 39 41  1  0  0  0  0
 41 42  2  0  0  0  0
 44 43  1  1  0  0  0
 44 45  1  0  0  0  0
 44 46  1  0  0  0  0
 45 46  1  0  0  0  0
 46 47  2  0  0  0  0
 48 49  2  0  0  0  0
 48 50  1  0  0  0  0
 50 51  2  0  0  0  0
 50 52  1  0  0  0  0
 52 53  2  0  0  0  0
M  CHG  1  27   1
M  END
$$$$