
 OpenBabel09232009513D

 51 59  0  0  1  0  0  0  0  0999 V2000
    4.9906    2.3240    1.9146 I   0  0  0  0  0  0  0  0  0  0  0  0
    5.5755    1.0159    0.4457 C   0  0  0  0  0  0  0  0  0  0  0  0
    5.1456    1.0719   -0.8251 C   0  0  0  0  0  0  0  0  0  0  0  0
    4.2325    2.0325   -1.2383 O   0  0  0  0  0  0  0  0  0  0  0  0
    4.3023    2.3862   -2.6144 C   0  0  2  0  0  0  0  0  0  0  0  0
    3.2847    3.3535   -2.9394 O   0  0  0  0  0  0  0  0  0  0  0  0
    3.5789    4.6963   -2.7704 C   0  0  0  0  0  0  0  0  0  0  0  0
    2.6021    5.5815   -2.4901 C   0  0  0  0  0  0  0  0  0  0  0  0
    2.8099    6.9470   -2.3964 O   0  0  0  0  0  0  0  0  0  0  0  0
    3.9969    7.4729   -2.8569 C   0  0  0  0  0  0  0  0  0  0  0  0
    5.0665    6.6753   -3.2203 C   0  0  0  0  0  0  0  0  0  0  0  0
    4.9725    5.1888   -3.0785 C   0  0  0  0  0  0  0  0  0  0  0  0
    6.2002    7.3277   -3.7087 C   0  0  0  0  0  0  0  0  0  0  0  0
    7.3487    6.6112   -4.0670 N   0  0  0  0  0  0  0  0  0  0  0  0
    8.5274    7.1754   -4.4442 C   0  0  0  0  0  0  0  0  0  0  0  0
    9.5083    6.4813   -4.6834 O   0  0  0  0  0  0  0  0  0  0  0  0
    8.5723    8.5260   -4.5047 N   0  0  0  0  0  0  0  0  0  0  0  0
    7.4080    9.3719   -4.4879 C   0  0  0  0  0  0  0  0  0  0  0  0
    6.2121    8.7168   -3.8623 C   0  0  0  0  0  0  0  0  0  0  0  0
    5.0702    9.4449   -3.5070 C   0  0  0  0  0  0  0  0  0  0  0  0
    3.9835    8.8117   -2.9824 N   0  0  0  0  0  0  0  0  0  0  0  0
    4.9861   10.9392   -3.7146 C   0  0  0  0  0  0  0  0  0  0  0  0
    4.6991   11.3949   -5.0461 O   0  0  0  0  0  0  0  0  0  0  0  0
    3.7012   11.5073   -4.0122 O   0  0  0  0  0  0  0  0  0  0  0  0
    1.1890    5.2002   -2.2708 C   0  0  0  0  0  0  0  0  0  0  0  0
    0.8886    4.8814   -0.9941 N   0  0  0  0  0  0  0  0  0  0  0  0
   -0.3896    4.6211   -0.7508 C   0  0  0  0  0  0  0  0  0  0  0  0
   -1.3622    4.6744   -1.6555 N   0  0  0  0  0  0  0  0  0  0  0  0
   -1.0107    5.0006   -2.9006 C   0  0  0  0  0  0  0  0  0  0  0  0
    0.2818    5.2590   -3.2834 N   0  3  0  0  0  0  0  0  0  0  0  0
    0.5708    5.5400   -4.5792 C   0  0  0  0  0  0  0  0  0  0  0  0
   -0.4400    5.6366   -5.5337 C   0  0  0  0  0  0  0  0  0  0  0  0
   -1.7467    5.4117   -5.1791 C   0  0  0  0  0  0  0  0  0  0  0  0
   -2.0186    5.0708   -3.8601 C   0  0  0  0  0  0  0  0  0  0  0  0
   -2.8017    5.5097   -6.0367 O   0  0  0  0  0  0  0  0  0  0  0  0
   -2.6314    6.3535   -7.1955 C   0  0  2  0  0  0  0  0  0  0  0  0
   -1.2679    6.2477   -7.8547 C   0  0  0  0  0  0  0  0  0  0  0  0
   -1.0538    6.3990   -9.0478 O   0  0  0  0  0  0  0  0  0  0  0  0
   -0.1170    5.9736   -6.9110 C   0  0  0  0  0  0  0  0  0  0  0  0
    1.0526    6.0306   -7.2498 O   0  0  0  0  0  0  0  0  0  0  0  0
   -3.0268    7.7891   -6.9266 C   0  0  3  0  0  0  0  0  0  0  0  0
   -2.8587    8.7198   -8.0092 O   0  0  0  0  0  0  0  0  0  0  0  0
   -4.2453    7.9579   -6.1820 O   0  0  0  0  0  0  0  0  0  0  0  0
   -3.1157    8.3674   -5.5956 C   0  0  0  0  0  0  0  0  0  0  0  0
   -2.5837    8.0558   -4.5423 O   0  0  0  0  0  0  0  0  0  0  0  0
    4.0572    1.1540   -3.4584 C   0  0  0  0  0  0  0  0  0  0  0  0
    3.1759    1.0149   -4.2917 O   0  0  0  0  0  0  0  0  0  0  0  0
    5.0604    0.0751   -3.1549 C   0  0  0  0  0  0  0  0  0  0  0  0
    5.4171   -0.6882   -4.0354 O   0  0  0  0  0  0  0  0  0  0  0  0
    5.6691    0.0294   -1.7659 C   0  0  0  0  0  0  0  0  0  0  0  0
    6.5355   -0.7768   -1.4755 O   0  0  0  0  0  0  0  0  0  0  0  0
  1  2  1  0  0  0  0
  2  3  2  0  0  0  0
  3  4  1  0  0  0  0
  3 50  1  0  0  0  0
  4  5  1  0  0  0  0
  5  6  1  1  0  0  0
  5 46  1  0  0  0  0
  6  7  1  0  0  0  0
  7  8  2  0  0  0  0
  7 12  1  0  0  0  0
  8  9  1  0  0  0  0
  8 25  1  0  0  0  0
  9 10  1  0  0  0  0
 10 11  2  0  0  0  0
 10 21  1  0  0  0  0
 11 12  1  0  0  0  0
 11 13  1  0  0  0  0
 13 14  1  0  0  0  0
 13 19  2  0  0  0  0
 14 15  1  0  0  0  0
 15 16  2  0  0  0  0
 15 17  1  0  0  0  0
 17 18  1  0  0  0  0
 18 19  1  0  0  0  0
 19 20  1  0  0  0  0
 20 21  2  0  0  0  0
 20 22  1  0  0  0  0
 22 23  1  0  0  0  0
 22 24  1  0  0  0  0
 23 24  1  0  0  0  0
 25 26  2  0  0  0  0
 25 30  1  0  0  0  0
 26 27  1  0  0  0  0
 27 28  2  0  0  0  0
 28 29  1  0  0  0  0
 29 30  2  0  0  0  0
 29 34  1  0  0  0  0
 30 31  1  0  0  0  0
 31 32  2  0  0  0  0
 32 33  1  0  0  0  0
 32 39  1  0  0  0  0
 33 34  2  0  0  0  0
 33 35  1  0  0  0  0
 36 35  1  1  0  0  0
 36 37  1  0  0  0  0
 36 41  1  0  0  0  0
 37 38  2  0  0  0  0
 37 39  1  0  0  0  0
 39 40  2  0  0  0  0
 41 42  1  0  0  0  0
 41 43  1  0  0  0  0
 41 44  1  0  0  0  0
 43 44  1  0  0  0  0
 44 45  2  0  0  0  0
 46 47  2  0  0  0  0
 46 48  1  0  0  0  0
 48 49  2  0  0  0  0
 48 50  1  0  0  0  0
 50 51  2  0  0  0  0
M  CHG  1  30   1
M  END
$$$$