
 OpenBabel11272001183D

 54 62  0  0  1  0  0  0  0  0999 V2000
   -1.5521   -1.8196   -4.1641 F   0  0  0  0  0  0  0  0  0  0  0  0
   -1.0958   -0.9663   -3.2283 C   0  0  0  0  0  0  0  0  0  0  0  0
   -0.1479   -1.3247   -2.3602 C   0  0  0  0  0  0  0  0  0  0  0  0
    0.3705   -2.6024   -2.3784 O   0  0  0  0  0  0  0  0  0  0  0  0
    1.7248   -2.6972   -1.9415 C   0  0  2  0  0  0  0  0  0  0  0  0
    2.1841   -4.0521   -1.9920 O   0  0  0  0  0  0  0  0  0  0  0  0
    2.1945   -4.6895   -3.2297 C   0  0  0  0  0  0  0  0  0  0  0  0
    2.0502   -6.0314   -3.3260 C   0  0  0  0  0  0  0  0  0  0  0  0
    2.0810   -6.7176   -4.5381 O   0  0  0  0  0  0  0  0  0  0  0  0
    2.3530   -6.0179   -5.7057 C   0  0  0  0  0  0  0  0  0  0  0  0
    2.5531   -4.6892   -5.7148 C   0  0  0  0  0  0  0  0  0  0  0  0
    2.4483   -3.8679   -4.4703 C   0  0  0  0  0  0  0  0  0  0  0  0
    2.8518   -3.9639   -7.0051 C   0  0  3  0  0  0  0  0  0  0  0  0
    4.0877   -3.2690   -6.8302 O   0  0  0  0  0  0  0  0  0  0  0  0
    4.8403   -2.8510   -7.8771 C   0  0  0  0  0  0  0  0  0  0  0  0
    5.8300   -2.1517   -7.7017 O   0  0  0  0  0  0  0  0  0  0  0  0
    4.4716   -3.2469   -9.1194 O   0  0  0  0  0  0  0  0  0  0  0  0
    3.3341   -4.0554   -9.3790 C   0  0  3  0  0  0  0  0  0  0  0  0
    2.9541   -4.8519   -8.1950 C   0  0  0  0  0  0  0  0  0  0  0  0
    2.7296   -6.1837   -8.1160 C   0  0  0  0  0  0  0  0  0  0  0  0
    2.4037   -6.7284   -6.8805 N   0  0  0  0  0  0  0  0  0  0  0  0
    2.8056   -7.1247   -9.2594 C   0  0  0  0  0  0  0  0  0  0  0  0
    4.0297   -7.7923   -9.6040 O   0  0  0  0  0  0  0  0  0  0  0  0
    2.9208   -8.5476   -9.0786 O   0  0  0  0  0  0  0  0  0  0  0  0
    2.2386   -3.2230   -9.7260 O   0  0  0  0  0  0  0  0  0  0  0  0
    1.8401   -6.8973   -2.1451 C   0  0  0  0  0  0  0  0  0  0  0  0
    2.9795   -7.3852   -1.5942 N   0  0  0  0  0  0  0  0  0  0  0  0
    2.8602   -8.0823   -0.4492 C   0  0  0  0  0  0  0  0  0  0  0  0
    3.9804   -8.5776    0.0956 F   0  0  0  0  0  0  0  0  0  0  0  0
    1.6652   -8.3009    0.2065 C   0  0  0  0  0  0  0  0  0  0  0  0
    0.4914   -7.7853   -0.3489 C   0  0  0  0  0  0  0  0  0  0  0  0
    0.5536   -7.1140   -1.5901 C   0  0  0  0  0  0  0  0  0  0  0  0
   -0.6665   -6.7112   -2.1818 C   0  0  0  0  0  0  0  0  0  0  0  0
   -1.8837   -6.8547   -1.4993 C   0  0  0  0  0  0  0  0  0  0  0  0
   -3.1435   -6.4916   -2.1545 C   0  0  0  0  0  0  0  0  0  0  0  0
   -3.1913   -6.2295   -3.3459 O   0  0  0  0  0  0  0  0  0  0  0  0
   -4.3894   -6.4838   -1.2989 C   0  0  0  0  0  0  0  0  0  0  0  0
   -5.4951   -6.3476   -1.8042 O   0  0  0  0  0  0  0  0  0  0  0  0
   -4.1358   -6.5730    0.1854 C   0  0  1  0  0  0  0  0  0  0  0  0
   -3.0444   -7.4250    0.5594 O   0  0  0  0  0  0  0  0  0  0  0  0
   -1.9210   -7.3721   -0.2152 C   0  0  0  0  0  0  0  0  0  0  0  0
   -0.7429   -7.8952    0.3192 C   0  0  0  0  0  0  0  0  0  0  0  0
   -0.7863   -8.4927    1.5221 F   0  0  0  0  0  0  0  0  0  0  0  0
   -4.0058   -5.2072    0.8095 C   0  0  1  0  0  0  0  0  0  0  0  0
   -2.9463   -4.3547    0.3187 O   0  0  0  0  0  0  0  0  0  0  0  0
   -5.2313   -4.5069    1.0498 O   0  0  0  0  0  0  0  0  0  0  0  0
   -4.5554   -4.9314    2.1264 C   0  0  0  0  0  0  0  0  0  0  0  0
   -4.9131   -5.6452    3.0471 O   0  0  0  0  0  0  0  0  0  0  0  0
    1.7959   -2.1679   -0.5064 C   0  0  0  0  0  0  0  0  0  0  0  0
    2.2710   -2.8073    0.4327 O   0  0  0  0  0  0  0  0  0  0  0  0
    1.3339   -0.7396   -0.3458 C   0  0  3  0  0  0  0  0  0  0  0  0
    0.2918   -0.3133   -1.3525 C   0  0  0  0  0  0  0  0  0  0  0  0
   -0.1772    0.8249   -1.3619 O   0  0  0  0  0  0  0  0  0  0  0  0
    0.9004   -0.4924    0.9279 F   0  0  0  0  0  0  0  0  0  0  0  0
  1  2  1  0  0  0  0
  2  3  2  0  0  0  0
  3  4  1  0  0  0  0
  3 52  1  0  0  0  0
  4  5  1  0  0  0  0
  5  6  1  1  0  0  0
  5 49  1  0  0  0  0
  6  7  1  0  0  0  0
  7  8  2  0  0  0  0
  7 12  1  0  0  0  0
  8  9  1  0  0  0  0
  8 26  1  0  0  0  0
  9 10  1  0  0  0  0
 10 11  2  0  0  0  0
 10 21  1  0  0  0  0
 11 12  1  0  0  0  0
 11 13  1  0  0  0  0
 13 14  1  0  0  0  0
 13 19  1  0  0  0  0
 14 15  1  0  0  0  0
 15 16  2  0  0  0  0
 15 17  1  0  0  0  0
 17 18  1  0  0  0  0
 18 19  1  0  0  0  0
 18 25  1  0  0  0  0
 19 20  2  0  0  0  0
 20 21  1  0  0  0  0
 20 22  1  0  0  0  0
 22 23  1  0  0  0  0
 22 24  1  0  0  0  0
 23 24  1  0  0  0  0
 26 27  2  0  0  0  0
 26 32  1  0  0  0  0
 27 28  1  0  0  0  0
 28 29  1  0  0  0  0
 28 30  2  0  0  0  0
 30 31  1  0  0  0  0
 31 32  2  0  0  0  0
 31 42  1  0  0  0  0
 32 33  1  0  0  0  0
 33 34  2  0  0  0  0
 34 35  1  0  0  0  0
 34 41  1  0  0  0  0
 35 36  2  0  0  0  0
 35 37  1  0  0  0  0
 37 38  2  0  0  0  0
 39 37  1  6  0  0  0
 39 40  1  0  0  0  0
 39 44  1  0  0  0  0
 40 41  1  0  0  0  0
 41 42  2  0  0  0  0
 42 43  1  0  0  0  0
 44 45  1  6  0  0  0
 44 46  1  0  0  0  0
 44 47  1  0  0  0  0
 46 47  1  0  0  0  0
 47 48  2  0  0  0  0
 49 50  2  0  0  0  0
 49 51  1  0  0  0  0
 51 52  1  0  0  0  0
 51 54  1  0  0  0  0
 52 53  2  0  0  0  0
M  END
$$$$