
 OpenBabel11232002003D

 52 60  0  0  1  0  0  0  0  0999 V2000
    0.0709    4.4690   -0.3234 O   0  0  0  0  0  0  0  0  0  0  0  0
    0.8011    3.4775    0.2855 C   0  0  0  0  0  0  0  0  0  0  0  0
    1.5083    2.5772   -0.4040 C   0  0  0  0  0  0  0  0  0  0  0  0
    1.4847    2.5886   -1.7816 O   0  0  0  0  0  0  0  0  0  0  0  0
    2.7399    2.2914   -2.3556 C   0  0  2  0  0  0  0  0  0  0  0  0
    2.6614    2.4313   -3.7778 O   0  0  0  0  0  0  0  0  0  0  0  0
    2.4329    3.6718   -4.3491 C   0  0  0  0  0  0  0  0  0  0  0  0
    2.4324    3.8025   -5.6931 C   0  0  0  0  0  0  0  0  0  0  0  0
    2.2409    5.0382   -6.3128 O   0  0  0  0  0  0  0  0  0  0  0  0
    2.1591    6.2027   -5.5539 C   0  0  0  0  0  0  0  0  0  0  0  0
    2.1885    6.1654   -4.2086 C   0  0  0  0  0  0  0  0  0  0  0  0
    2.1969    4.8647   -3.4617 C   0  0  0  0  0  0  0  0  0  0  0  0
    2.2002    7.4209   -3.3814 C   0  0  3  0  0  0  0  0  0  0  0  0
    3.4646    7.4914   -2.7078 N   0  0  0  0  0  0  0  0  0  0  0  0
    3.9419    8.6344   -2.1566 C   0  0  0  0  0  0  0  0  0  0  0  0
    4.8471    8.5942   -1.3371 O   0  0  0  0  0  0  0  0  0  0  0  0
    3.4000    9.7900   -2.6009 N   0  0  0  0  0  0  0  0  0  0  0  0
    2.2087    9.8949   -3.3961 C   0  0  0  0  0  0  0  0  0  0  0  0
    2.1053    8.6543   -4.2314 C   0  0  0  0  0  0  0  0  0  0  0  0
    2.0406    8.6052   -5.5813 C   0  0  0  0  0  0  0  0  0  0  0  0
    2.0590    7.3885   -6.2408 O   0  3  0  0  0  0  0  0  0  0  0  0
    2.0251    9.7984   -6.4579 C   0  0  0  0  0  0  0  0  0  0  0  0
    3.2449   10.3619   -6.9555 O   0  0  0  0  0  0  0  0  0  0  0  0
    2.3545    9.6735   -7.8539 O   0  0  0  0  0  0  0  0  0  0  0  0
    2.6436    2.6456   -6.6182 C   0  0  0  0  0  0  0  0  0  0  0  0
    3.5202    1.6275   -6.2361 C   0  0  0  0  0  0  0  0  0  0  0  0
    3.7254    0.5518   -6.9941 N   0  3  0  0  0  0  0  0  0  0  0  0
    4.5378   -0.4186   -6.5334 F   0  0  0  0  0  0  0  0  0  0  0  0
    3.1589    0.4007   -8.1721 N   0  0  0  0  0  0  0  0  0  0  0  0
    2.2980    1.3214   -8.6041 C   0  0  0  0  0  0  0  0  0  0  0  0
    1.9888    2.4834   -7.8610 C   0  0  0  0  0  0  0  0  0  0  0  0
    1.0200    3.3693   -8.3919 C   0  0  0  0  0  0  0  0  0  0  0  0
    0.3607    3.0856   -9.5884 C   0  0  0  0  0  0  0  0  0  0  0  0
    0.6545    1.9322  -10.2899 C   0  0  0  0  0  0  0  0  0  0  0  0
    1.6541    1.0863   -9.8137 C   0  0  0  0  0  0  0  0  0  0  0  0
    0.0217    1.5580  -11.4400 O   0  0  0  0  0  0  0  0  0  0  0  0
   -1.3401    2.0103  -11.5797 C   0  0  2  0  0  0  0  0  0  0  0  0
   -1.5136    3.4788  -11.2332 C   0  0  0  0  0  0  0  0  0  0  0  0
   -2.3358    4.3145  -11.7846 N   0  0  0  0  0  0  0  0  0  0  0  0
   -0.6702    3.9845  -10.0969 C   0  0  0  0  0  0  0  0  0  0  0  0
   -0.8821    5.1660   -9.5941 N   0  0  0  0  0  0  0  0  0  0  0  0
   -2.2812    1.0712  -10.8579 C   0  0  1  0  0  0  0  0  0  0  0  0
   -2.2581   -0.3027  -11.3049 O   0  0  0  0  0  0  0  0  0  0  0  0
   -2.3296    1.2244   -9.4283 O   0  0  0  0  0  0  0  0  0  0  0  0
   -3.4442    1.5076  -10.1084 C   0  0  0  0  0  0  0  0  0  0  0  0
   -4.1167    2.5252  -10.1507 O   0  0  0  0  0  0  0  0  0  0  0  0
    3.1224    0.8563   -2.0524 C   0  0  0  0  0  0  0  0  0  0  0  0
    3.5405    0.0598   -2.8835 O   0  0  0  0  0  0  0  0  0  0  0  0
    2.9861    0.5354   -0.5783 C   0  0  0  0  0  0  0  0  0  0  0  0
    3.4499   -0.5007   -0.1363 O   0  0  0  0  0  0  0  0  0  0  0  0
    2.3067    1.5529    0.3297 C   0  0  0  0  0  0  0  0  0  0  0  0
    2.4743    1.5633    1.5350 O   0  0  0  0  0  0  0  0  0  0  0  0
  1  2  1  0  0  0  0
  2  3  2  0  0  0  0
  3  4  1  0  0  0  0
  3 51  1  0  0  0  0
  4  5  1  0  0  0  0
  5  6  1  6  0  0  0
  5 47  1  0  0  0  0
  6  7  1  0  0  0  0
  7  8  2  0  0  0  0
  7 12  1  0  0  0  0
  8  9  1  0  0  0  0
  8 25  1  0  0  0  0
  9 10  1  0  0  0  0
 10 11  2  0  0  0  0
 10 21  1  0  0  0  0
 11 12  1  0  0  0  0
 11 13  1  0  0  0  0
 13 14  1  0  0  0  0
 13 19  1  0  0  0  0
 14 15  1  0  0  0  0
 15 16  2  0  0  0  0
 15 17  1  0  0  0  0
 17 18  1  0  0  0  0
 18 19  1  0  0  0  0
 19 20  2  0  0  0  0
 20 21  1  0  0  0  0
 20 22  1  0  0  0  0
 22 23  1  0  0  0  0
 22 24  1  0  0  0  0
 23 24  1  0  0  0  0
 25 26  2  0  0  0  0
 25 31  1  0  0  0  0
 26 27  1  0  0  0  0
 27 28  1  0  0  0  0
 27 29  2  0  0  0  0
 29 30  1  0  0  0  0
 30 31  2  0  0  0  0
 30 35  1  0  0  0  0
 31 32  1  0  0  0  0
 32 33  2  0  0  0  0
 33 34  1  0  0  0  0
 33 40  1  0  0  0  0
 34 35  2  0  0  0  0
 34 36  1  0  0  0  0
 37 36  1  1  0  0  0
 37 38  1  0  0  0  0
 37 42  1  0  0  0  0
 38 39  2  0  0  0  0
 38 40  1  0  0  0  0
 40 41  2  0  0  0  0
 42 43  1  6  0  0  0
 42 44  1  0  0  0  0
 42 45  1  0  0  0  0
 44 45  1  0  0  0  0
 45 46  2  0  0  0  0
 47 48  2  0  0  0  0
 47 49  1  0  0  0  0
 49 50  2  0  0  0  0
 49 51  1  0  0  0  0
 51 52  2  0  0  0  0
M  CHG  2  21   1  27   1
M  END
$$$$