
 OpenBabel11262002163D

 53 61  0  0  1  0  0  0  0  0999 V2000
    5.7886   -2.5353    3.2929 O   0  0  0  0  0  0  0  0  0  0  0  0
    5.2337   -1.4856    2.6055 C   0  0  0  0  0  0  0  0  0  0  0  0
    4.3646   -1.6501    1.6015 C   0  0  0  0  0  0  0  0  0  0  0  0
    4.0152   -2.9097    1.1535 O   0  0  0  0  0  0  0  0  0  0  0  0
    2.6399   -3.0732    0.7927 C   0  0  2  0  0  0  0  0  0  0  0  0
    2.5412   -4.1412   -0.1847 O   0  0  0  0  0  0  0  0  0  0  0  0
    2.9910   -5.4012    0.1739 C   0  0  0  0  0  0  0  0  0  0  0  0
    3.4999   -6.2210   -0.7661 C   0  0  0  0  0  0  0  0  0  0  0  0
    3.8945   -7.5336   -0.5024 O   0  0  0  0  0  0  0  0  0  0  0  0
    3.6228   -8.0913    0.7562 C   0  0  0  0  0  0  0  0  0  0  0  0
    3.0714   -7.3529    1.7440 C   0  0  0  0  0  0  0  0  0  0  0  0
    2.7781   -5.8815    1.5854 C   0  0  0  0  0  0  0  0  0  0  0  0
    2.6989   -7.9583    3.0785 C   0  0  3  0  0  0  0  0  0  0  0  0
    1.2993   -7.8498    3.2281 O   0  0  0  0  0  0  0  0  0  0  0  0
    0.7413   -8.4373    4.3262 C   0  0  0  0  0  0  0  0  0  0  0  0
   -0.3701   -8.1073    4.7055 O   0  0  0  0  0  0  0  0  0  0  0  0
    1.4749   -9.3946    4.9537 O   0  0  0  0  0  0  0  0  0  0  0  0
    2.5218   -9.9921    4.3615 C   0  0  0  0  0  0  0  0  0  0  0  0
    3.1047  -10.9570    4.8322 O   0  0  0  0  0  0  0  0  0  0  0  0
    2.9978   -9.3946    3.1176 C   0  0  0  0  0  0  0  0  0  0  0  0
    3.5999  -10.0797    2.1241 C   0  0  0  0  0  0  0  0  0  0  0  0
    3.9285   -9.4258    0.9427 O   0  3  0  0  0  0  0  0  0  0  0  0
    3.8883  -11.5352    2.1446 C   0  0  0  0  0  0  0  0  0  0  0  0
    2.9416  -12.4759    1.6183 O   0  0  0  0  0  0  0  0  0  0  0  0
    4.1697  -12.2228    0.9075 O   0  0  0  0  0  0  0  0  0  0  0  0
    3.5787   -5.7855   -2.1826 C   0  0  0  0  0  0  0  0  0  0  0  0
    2.4900   -6.0431   -3.0059 C   0  0  0  0  0  0  0  0  0  0  0  0
    2.4440   -5.6143   -4.2690 N   0  0  0  0  0  0  0  0  0  0  0  0
    3.4649   -4.8644   -4.7468 N   0  0  0  0  0  0  0  0  0  0  0  0
    4.5357   -4.5750   -3.9737 C   0  0  0  0  0  0  0  0  0  0  0  0
    4.6372   -5.0605   -2.6732 N   0  3  0  0  0  0  0  0  0  0  0  0
    5.7596   -4.8053   -1.9507 C   0  0  0  0  0  0  0  0  0  0  0  0
    6.8022   -4.0462   -2.4685 C   0  0  0  0  0  0  0  0  0  0  0  0
    7.9955   -3.8264   -1.6649 C   0  0  0  0  0  0  0  0  0  0  0  0
    8.0991   -4.3830   -0.5860 O   0  0  0  0  0  0  0  0  0  0  0  0
    9.0590   -2.9386   -2.2654 C   0  0  0  0  0  0  0  0  0  0  0  0
   10.2231   -3.0667   -1.9271 O   0  0  0  0  0  0  0  0  0  0  0  0
    8.5295   -1.9694   -3.3006 C   0  0  1  0  0  0  0  0  0  0  0  0
    7.6239   -2.6129   -4.2309 O   0  0  0  0  0  0  0  0  0  0  0  0
    6.7037   -3.4815   -3.7179 C   0  0  0  0  0  0  0  0  0  0  0  0
    5.5757   -3.7786   -4.4719 C   0  0  0  0  0  0  0  0  0  0  0  0
    5.4739   -3.2670   -5.7079 F   0  0  0  0  0  0  0  0  0  0  0  0
    7.9536   -0.7297   -2.6566 C   0  0  1  0  0  0  0  0  0  0  0  0
    8.8714    0.0591   -1.8825 O   0  0  0  0  0  0  0  0  0  0  0  0
    6.9990    0.0005   -3.4307 O   0  0  0  0  0  0  0  0  0  0  0  0
    6.5426   -0.5696   -2.3028 C   0  0  0  0  0  0  0  0  0  0  0  0
    5.6790   -1.4015   -2.1058 O   0  0  0  0  0  0  0  0  0  0  0  0
    2.0173   -1.8680    0.1570 C   0  0  0  0  0  0  0  0  0  0  0  0
    2.5690   -0.6568    0.2033 C   0  0  0  0  0  0  0  0  0  0  0  0
    3.8225   -0.4269    0.9378 C   0  0  0  0  0  0  0  0  0  0  0  0
    4.3766    0.6614    0.9886 O   0  0  0  0  0  0  0  0  0  0  0  0
    1.9935    0.4124   -0.3760 F   0  0  0  0  0  0  0  0  0  0  0  0
    0.8409   -2.0194   -0.4945 F   0  0  0  0  0  0  0  0  0  0  0  0
  1  2  1  0  0  0  0
  2  3  2  0  0  0  0
  3  4  1  0  0  0  0
  3 50  1  0  0  0  0
  4  5  1  0  0  0  0
  5 48  1  0  0  0  0
  5  6  1  6  0  0  0
  6  7  1  0  0  0  0
  7  8  2  0  0  0  0
  7 12  1  0  0  0  0
  8  9  1  0  0  0  0
  8 26  1  0  0  0  0
  9 10  1  0  0  0  0
 10 11  2  0  0  0  0
 10 22  1  0  0  0  0
 11 12  1  0  0  0  0
 11 13  1  0  0  0  0
 13 14  1  0  0  0  0
 13 20  1  0  0  0  0
 14 15  1  0  0  0  0
 15 16  2  0  0  0  0
 15 17  1  0  0  0  0
 17 18  1  0  0  0  0
 18 19  2  0  0  0  0
 18 20  1  0  0  0  0
 20 21  2  0  0  0  0
 21 22  1  0  0  0  0
 21 23  1  0  0  0  0
 23 24  1  0  0  0  0
 23 25  1  0  0  0  0
 24 25  1  0  0  0  0
 26 27  2  0  0  0  0
 26 31  1  0  0  0  0
 27 28  1  0  0  0  0
 28 29  2  0  0  0  0
 29 30  1  0  0  0  0
 30 31  2  0  0  0  0
 30 41  1  0  0  0  0
 31 32  1  0  0  0  0
 32 33  2  0  0  0  0
 33 34  1  0  0  0  0
 33 40  1  0  0  0  0
 34 35  2  0  0  0  0
 34 36  1  0  0  0  0
 36 37  2  0  0  0  0
 38 36  1  1  0  0  0
 38 39  1  0  0  0  0
 38 43  1  0  0  0  0
 39 40  1  0  0  0  0
 40 41  2  0  0  0  0
 41 42  1  0  0  0  0
 43 44  1  1  0  0  0
 43 45  1  0  0  0  0
 43 46  1  0  0  0  0
 45 46  1  0  0  0  0
 46 47  2  0  0  0  0
 48 49  2  0  0  0  0
 48 53  1  0  0  0  0
 49 50  1  0  0  0  0
 49 52  1  0  0  0  0
 50 51  2  0  0  0  0
M  CHG  2  22   1  31   1
M  END
$$$$