
 OpenBabel11242012233D

 93108  0  0  1  0  0  0  0  0999 V2000
    5.6505    3.7929    2.2453 F   0  0  0  0  0  0  0  0  0  0  0  0
    6.0607    4.9291    1.6194 C   0  0  3  0  0  0  0  0  0  0  0  0
    7.2416    5.5216    2.4108 C   0  0  0  0  0  0  0  0  0  0  0  0
    7.0804    7.0387    2.6336 C   0  0  3  0  0  0  0  0  0  0  0  0
    8.3295    7.6494    3.2671 C   0  0  0  0  0  0  0  0  0  0  0  0
    8.2186    7.7297    4.7768 C   0  0  0  0  0  0  0  0  0  0  0  0
    6.9597    8.4975    5.1751 C   0  0  3  0  0  0  0  0  0  0  0  0
    5.6897    7.8254    4.6859 C   0  0  0  0  0  0  0  0  0  0  0  0
    5.7677    7.2130    3.4002 C   0  0  0  0  0  0  0  0  0  0  0  0
    4.6534    6.5652    2.8214 C   0  0  0  0  0  0  0  0  0  0  0  0
    4.8578    5.8948    1.4691 C   0  0  3  0  0  0  0  0  0  0  0  0
    3.6120    5.2313    0.8031 C   0  0  3  0  0  0  0  0  0  0  0  0
    2.2959    5.7066    1.4643 C   0  0  0  0  0  0  0  0  0  0  0  0
    2.3404    5.6432    2.9905 C   0  0  0  0  0  0  0  0  0  0  0  0
    3.4658    6.4831    3.5312 C   0  0  0  0  0  0  0  0  0  0  0  0
    3.3889    7.0772    4.8085 C   0  0  0  0  0  0  0  0  0  0  0  0
    4.4693    7.7650    5.4331 C   0  0  0  0  0  0  0  0  0  0  0  0
    4.2659    8.3216    6.8282 C   0  0  0  0  0  0  0  0  0  0  0  0
    4.8706    9.5133    7.2680 C   0  0  0  0  0  0  0  0  0  0  0  0
    4.7536   10.0308    8.5800 C   0  0  0  0  0  0  0  0  0  0  0  0
    5.5990   11.2397    8.9644 C   0  0  3  0  0  0  0  0  0  0  0  0
    7.0775   10.8041    8.9884 C   0  0  0  0  0  0  0  0  0  0  0  0
    8.0139   11.9174    9.4238 C   0  0  0  0  0  0  0  0  0  0  0  0
    7.6193   12.4777   10.7928 C   0  0  3  0  0  0  0  0  0  0  0  0
    6.1656   13.0074   10.7398 C   0  0  3  0  0  0  0  0  0  0  0  0
    5.1546   11.9107   10.2891 C   0  0  3  0  0  0  0  0  0  0  0  0
    4.8701   10.8363   11.3559 C   0  0  0  0  0  0  0  0  0  0  0  0
    3.7368    9.9125   10.9000 C   0  0  3  0  0  0  0  0  0  0  0  0
    3.9441    9.3715    9.5063 C   0  0  0  0  0  0  0  0  0  0  0  0
    3.2799    8.2113    9.0939 C   0  0  0  0  0  0  0  0  0  0  0  0
    3.4532    7.6981    7.7973 C   0  0  0  0  0  0  0  0  0  0  0  0
    2.8033    6.5586    7.5142 F   0  0  0  0  0  0  0  0  0  0  0  0
    2.5728   10.6266   10.9698 F   0  0  0  0  0  0  0  0  0  0  0  0
    5.7398   13.6697   12.0551 C   0  0  0  0  0  0  0  0  0  0  0  0
    8.6377   13.5437   11.2063 C   0  0  0  0  0  0  0  0  0  0  0  0
    3.5271    5.5144   -0.7481 C   0  0  3  0  0  0  0  0  0  0  0  0
    3.4381    6.9577   -0.9392 O   0  0  0  0  0  0  0  0  0  0  0  0
    3.7344    7.4800   -2.1620 C   0  0  0  0  0  0  0  0  0  0  0  0
    4.3897    6.7706   -3.1577 C   0  0  0  0  0  0  0  0  0  0  0  0
    4.5284    5.2880   -3.0355 C   0  0  3  0  0  0  0  0  0  0  0  0
    4.6700    4.8605   -1.5672 C   0  0  3  0  0  0  0  0  0  0  0  0
    4.6089    3.4279   -1.4520 O   0  0  0  0  0  0  0  0  0  0  0  0
    5.5686    2.7116   -2.1272 C   0  0  0  0  0  0  0  0  0  0  0  0
    5.1871    1.4495   -2.5880 C   0  0  0  0  0  0  0  0  0  0  0  0
    6.0618    0.6915   -3.3733 C   0  0  0  0  0  0  0  0  0  0  0  0
    7.3232    1.1887   -3.6948 C   0  0  0  0  0  0  0  0  0  0  0  0
    7.7281    2.4223   -3.1929 C   0  0  0  0  0  0  0  0  0  0  0  0
    6.8619    3.1711   -2.3925 C   0  0  0  0  0  0  0  0  0  0  0  0
    3.3454    4.7786   -3.6537 O   0  0  0  0  0  0  0  0  0  0  0  0
    4.7671    7.4127   -4.3532 C   0  0  0  0  0  0  0  0  0  0  0  0
    4.4212    8.7436   -4.6477 C   0  0  0  0  0  0  0  0  0  0  0  0
    3.6269    9.4223   -3.6840 C   0  0  0  0  0  0  0  0  0  0  0  0
    3.3564    8.7862   -2.4464 C   0  0  0  0  0  0  0  0  0  0  0  0
    2.6465    9.4863   -1.5328 F   0  0  0  0  0  0  0  0  0  0  0  0
    3.1369   10.6833   -4.0381 C   0  0  0  0  0  0  0  0  0  0  0  0
    2.3286   11.4424   -3.2151 O   0  0  0  0  0  0  0  0  0  0  0  0
    3.3968   11.2588   -5.2861 C   0  0  0  0  0  0  0  0  0  0  0  0
    4.2215   10.6587   -6.2549 C   0  0  0  0  0  0  0  0  0  0  0  0
    4.7566    9.4169   -5.8667 C   0  0  0  0  0  0  0  0  0  0  0  0
    5.6622    8.8532   -6.7436 O   0  0  0  0  0  0  0  0  0  0  0  0
    4.4600   11.3351   -7.5914 C   0  0  0  0  0  0  0  0  0  0  0  0
    4.4355   12.7518   -7.6480 C   0  0  0  0  0  0  0  0  0  0  0  0
    4.3713   13.5181   -8.8623 C   0  0  0  0  0  0  0  0  0  0  0  0
    4.0716   14.9791   -9.0670 C   0  0  0  0  0  0  0  0  0  0  0  0
    4.1820   15.5252  -10.3572 C   0  0  0  0  0  0  0  0  0  0  0  0
    3.7272   16.8358  -10.6849 N   0  0  0  0  0  0  0  0  0  0  0  0
    4.5407   14.6396  -11.3729 C   0  0  0  0  0  0  0  0  0  0  0  0
    4.7683   13.3247  -11.2036 N   0  0  0  0  0  0  0  0  0  0  0  0
    4.6529   12.7572  -10.0049 N   0  3  0  0  0  0  0  0  0  0  0  0
    4.7914   11.4024   -9.9616 N   0  3  0  0  0  0  0  0  0  0  0  0
    4.6149   10.6760   -8.8273 C   0  0  0  0  0  0  0  0  0  0  0  0
    4.4801    9.3302   -8.9759 O   0  0  0  0  0  0  0  0  0  0  0  0
    5.0470   10.6313  -11.1094 O   0  0  0  0  0  0  0  0  0  0  0  0
    3.5827   15.9726   -7.9163 N   0  3  0  0  0  0  0  0  0  0  0  0
    3.8738   17.3494   -7.8897 N   0  3  0  0  0  0  0  0  0  0  0  0
    4.7962   17.9678   -8.7331 O   0  0  0  0  0  0  0  0  0  0  0  0
    3.4453   18.1948   -6.8825 C   0  0  0  0  0  0  0  0  0  0  0  0
    2.7400   17.7639   -5.7323 C   0  0  0  0  0  0  0  0  0  0  0  0
    2.4608   16.3943   -5.7019 C   0  0  0  0  0  0  0  0  0  0  0  0
    2.7786   15.5370   -6.8655 C   0  0  0  0  0  0  0  0  0  0  0  0
    2.1064   14.3092   -7.0035 N   0  0  0  0  0  0  0  0  0  0  0  0
    1.9115   15.9014   -4.5710 N   0  0  0  0  0  0  0  0  0  0  0  0
    1.6564   16.6454   -3.4769 N   0  3  0  0  0  0  0  0  0  0  0  0
    1.7864   18.0132   -3.4654 C   0  0  0  0  0  0  0  0  0  0  0  0
    2.3052   18.5710   -4.6368 N   0  3  0  0  0  0  0  0  0  0  0  0
    2.3519   19.9419   -4.7182 N   0  0  0  0  0  0  0  0  0  0  0  0
    1.9079   20.7397   -3.7000 N   0  3  0  0  0  0  0  0  0  0  0  0
    1.8582   22.2340   -3.8815 C   0  0  0  0  0  0  0  0  0  0  0  0
    1.4950   20.1947   -2.5403 C   0  0  0  0  0  0  0  0  0  0  0  0
    1.4502   18.8517   -2.4293 N   0  3  0  0  0  0  0  0  0  0  0  0
    1.0236   18.2786   -1.2200 O   0  0  0  0  0  0  0  0  0  0  0  0
    1.2252   16.0100   -2.3167 O   0  0  0  0  0  0  0  0  0  0  0  0
    7.0128    9.8086    4.5853 O   0  0  0  0  0  0  0  0  0  0  0  0
  1  2  1  0  0  0  0
  2  3  1  0  0  0  0
  2 11  1  0  0  0  0
  3  4  1  0  0  0  0
  4  5  1  0  0  0  0
  4  9  1  0  0  0  0
  5  6  1  0  0  0  0
  6  7  1  0  0  0  0
  7  8  1  0  0  0  0
  7 93  1  0  0  0  0
  8  9  2  0  0  0  0
  8 17  1  0  0  0  0
  9 10  1  0  0  0  0
 10 11  1  0  0  0  0
 10 15  2  0  0  0  0
 11 12  1  0  0  0  0
 12 13  1  0  0  0  0
 12 36  1  0  0  0  0
 13 14  1  0  0  0  0
 14 15  1  0  0  0  0
 15 16  1  0  0  0  0
 16 17  2  0  0  0  0
 17 18  1  0  0  0  0
 18 19  2  0  0  0  0
 18 31  1  0  0  0  0
 19 20  1  0  0  0  0
 20 21  1  0  0  0  0
 20 29  2  0  0  0  0
 21 22  1  0  0  0  0
 21 26  1  0  0  0  0
 22 23  1  0  0  0  0
 23 24  1  0  0  0  0
 24 25  1  0  0  0  0
 24 35  1  0  0  0  0
 25 26  1  0  0  0  0
 25 34  1  0  0  0  0
 26 27  1  0  0  0  0
 27 28  1  0  0  0  0
 28 29  1  0  0  0  0
 28 33  1  0  0  0  0
 29 30  1  0  0  0  0
 30 31  2  0  0  0  0
 31 32  1  0  0  0  0
 36 37  1  0  0  0  0
 36 41  1  0  0  0  0
 37 38  1  0  0  0  0
 38 39  2  0  0  0  0
 38 53  1  0  0  0  0
 39 40  1  0  0  0  0
 39 50  1  0  0  0  0
 40 41  1  0  0  0  0
 40 49  1  0  0  0  0
 41 42  1  0  0  0  0
 42 43  1  0  0  0  0
 43 44  2  0  0  0  0
 43 48  1  0  0  0  0
 44 45  1  0  0  0  0
 45 46  2  0  0  0  0
 46 47  1  0  0  0  0
 47 48  2  0  0  0  0
 50 51  2  0  0  0  0
 51 52  1  0  0  0  0
 51 59  1  0  0  0  0
 52 53  2  0  0  0  0
 52 55  1  0  0  0  0
 53 54  1  0  0  0  0
 55 56  1  0  0  0  0
 55 57  2  0  0  0  0
 57 58  1  0  0  0  0
 58 59  2  0  0  0  0
 58 61  1  0  0  0  0
 59 60  1  0  0  0  0
 61 62  2  0  0  0  0
 61 71  1  0  0  0  0
 62 63  1  0  0  0  0
 63 64  2  0  0  0  0
 63 69  1  0  0  0  0
 64 65  1  0  0  0  0
 64 74  1  0  0  0  0
 65 66  1  0  0  0  0
 65 67  2  0  0  0  0
 67 68  1  0  0  0  0
 68 69  2  0  0  0  0
 69 70  1  0  0  0  0
 70 71  2  0  0  0  0
 70 73  1  0  0  0  0
 71 72  1  0  0  0  0
 74 75  2  0  0  0  0
 74 80  1  0  0  0  0
 75 76  1  0  0  0  0
 75 77  1  0  0  0  0
 77 78  2  0  0  0  0
 78 79  1  0  0  0  0
 78 85  1  0  0  0  0
 79 80  2  0  0  0  0
 79 82  1  0  0  0  0
 80 81  1  0  0  0  0
 82 83  2  0  0  0  0
 83 84  1  0  0  0  0
 83 92  1  0  0  0  0
 84 85  2  0  0  0  0
 84 90  1  0  0  0  0
 85 86  1  0  0  0  0
 86 87  2  0  0  0  0
 87 88  1  0  0  0  0
 87 89  1  0  0  0  0
 89 90  2  0  0  0  0
 90 91  1  0  0  0  0
M  CHG  8  69   1  70   1  74   1  75   1  83   1  85   1  87   1  90   1
M  END
$$$$