
 OpenBabel11222001393D

 54 63  0  0  1  0  0  0  0  0999 V2000
    5.9280   -3.6740   -0.0949 O   0  0  0  0  0  0  0  0  0  0  0  0
    5.8042   -2.4304    0.4726 C   0  0  0  0  0  0  0  0  0  0  0  0
    4.7537   -2.0729    1.2224 C   0  0  0  0  0  0  0  0  0  0  0  0
    3.7096   -2.9638    1.4383 O   0  0  0  0  0  0  0  0  0  0  0  0
    2.9311   -2.7171    2.6061 C   0  0  2  0  0  0  0  0  0  0  0  0
    1.8507   -3.6686    2.7194 O   0  0  0  0  0  0  0  0  0  0  0  0
    2.1952   -5.0054    2.8695 C   0  0  0  0  0  0  0  0  0  0  0  0
    1.3818   -5.9807    2.4127 C   0  0  0  0  0  0  0  0  0  0  0  0
    1.6638   -7.3417    2.5648 O   0  0  0  0  0  0  0  0  0  0  0  0
    2.8189   -7.7370    3.2536 C   0  0  0  0  0  0  0  0  0  0  0  0
    3.6545   -6.8284    3.7915 C   0  0  0  0  0  0  0  0  0  0  0  0
    3.4425   -5.3494    3.6438 C   0  0  0  0  0  0  0  0  0  0  0  0
    4.8816   -7.2307    4.5648 C   0  0  3  0  0  0  0  0  0  0  0  0
    4.6839   -6.8260    5.9074 O   0  0  0  0  0  0  0  0  0  0  0  0
    5.6443   -7.1560    6.8127 C   0  0  0  0  0  0  0  0  0  0  0  0
    5.6738   -6.6364    7.9202 O   0  0  0  0  0  0  0  0  0  0  0  0
    6.5395   -8.0930    6.4238 O   0  0  0  0  0  0  0  0  0  0  0  0
    6.3073   -9.0055    5.3554 C   0  0  3  0  0  0  0  0  0  0  0  0
    5.0599   -8.6986    4.6071 C   0  0  0  0  0  0  0  0  0  0  0  0
    4.1903   -9.5637    4.0408 C   0  0  0  0  0  0  0  0  0  0  0  0
    3.0649   -9.0886    3.3767 O   0  3  0  0  0  0  0  0  0  0  0  0
    4.3628  -11.0376    4.0305 C   0  0  0  0  0  0  0  0  0  0  0  0
    3.3812  -11.8759    3.3923 O   0  0  0  0  0  0  0  0  0  0  0  0
    4.6912  -11.7230    2.8150 O   0  0  0  0  0  0  0  0  0  0  0  0
    7.3464   -8.8806    4.4080 O   0  0  0  0  0  0  0  0  0  0  0  0
    0.0803   -5.6766    1.7700 C   0  0  0  0  0  0  0  0  0  0  0  0
   -1.0433   -5.5778    2.5907 C   0  0  0  0  0  0  0  0  0  0  0  0
   -2.2431   -5.2852    2.0768 N   0  3  0  0  0  0  0  0  0  0  0  0
   -3.3160   -5.2428    2.8905 F   0  0  0  0  0  0  0  0  0  0  0  0
   -2.4245   -5.0535    0.7931 N   0  0  0  0  0  0  0  0  0  0  0  0
   -1.3859   -5.1090   -0.0461 C   0  0  0  0  0  0  0  0  0  0  0  0
   -0.0882   -5.4359    0.3879 C   0  0  0  0  0  0  0  0  0  0  0  0
    0.9451   -5.5244   -0.5821 C   0  0  0  0  0  0  0  0  0  0  0  0
    0.6926   -5.2998   -1.9487 C   0  0  0  0  0  0  0  0  0  0  0  0
    1.7128   -5.5781   -2.9863 C   0  0  0  0  0  0  0  0  0  0  0  0
    2.9554   -5.8369   -2.7220 N   0  0  0  0  0  0  0  0  0  0  0  0
    1.1935   -5.6619   -4.4238 C   0  0  3  0  0  0  0  0  0  0  0  0
    2.2912   -5.4022   -5.3773 N   0  0  0  0  0  0  0  0  0  0  0  0
    2.8322   -4.1425   -5.4299 N   0  0  0  0  0  0  0  0  0  0  0  0
    2.0277   -3.1274   -5.4154 C   0  0  0  0  0  0  0  0  0  0  0  0
    0.6471   -3.2741   -4.8382 C   0  0  2  0  0  0  0  0  0  0  0  0
    0.0728   -4.6515   -4.6449 C   0  0  2  0  0  0  0  0  0  0  0  0
   -0.9588   -4.6984   -3.6443 O   0  0  0  0  0  0  0  0  0  0  0  0
   -0.5832   -4.9397   -2.3565 C   0  0  0  0  0  0  0  0  0  0  0  0
   -1.5977   -4.8569   -1.3988 C   0  0  0  0  0  0  0  0  0  0  0  0
   -2.8451   -4.5588   -1.7997 F   0  0  0  0  0  0  0  0  0  0  0  0
    0.2182   -2.2123   -3.9652 O   0  0  0  0  0  0  0  0  0  0  0  0
    0.9086   -2.9346   -6.1641 O   0  0  0  0  0  0  0  0  0  0  0  0
    2.3579   -1.3179    2.5402 C   0  0  0  0  0  0  0  0  0  0  0  0
    1.1741   -1.0227    2.5439 O   0  0  0  0  0  0  0  0  0  0  0  0
    3.4599   -0.2957    2.4797 C   0  0  0  0  0  0  0  0  0  0  0  0
    3.3451    0.7549    3.0848 O   0  0  0  0  0  0  0  0  0  0  0  0
    4.7480   -0.6809    1.7754 C   0  0  0  0  0  0  0  0  0  0  0  0
    5.7015    0.0753    1.7196 O   0  0  0  0  0  0  0  0  0  0  0  0
  1  2  1  0  0  0  0
  2  3  2  0  0  0  0
  3  4  1  0  0  0  0
  3 53  1  0  0  0  0
  4  5  1  0  0  0  0
  5  6  1  6  0  0  0
  5 49  1  0  0  0  0
  6  7  1  0  0  0  0
  7  8  2  0  0  0  0
  7 12  1  0  0  0  0
  8  9  1  0  0  0  0
  8 26  1  0  0  0  0
  9 10  1  0  0  0  0
 10 11  2  0  0  0  0
 10 21  1  0  0  0  0
 11 12  1  0  0  0  0
 11 13  1  0  0  0  0
 13 14  1  0  0  0  0
 13 19  1  0  0  0  0
 14 15  1  0  0  0  0
 15 16  2  0  0  0  0
 15 17  1  0  0  0  0
 17 18  1  0  0  0  0
 18 19  1  0  0  0  0
 18 25  1  0  0  0  0
 19 20  2  0  0  0  0
 20 21  1  0  0  0  0
 20 22  1  0  0  0  0
 22 23  1  0  0  0  0
 22 24  1  0  0  0  0
 23 24  1  0  0  0  0
 26 27  2  0  0  0  0
 26 32  1  0  0  0  0
 27 28  1  0  0  0  0
 28 29  1  0  0  0  0
 28 30  2  0  0  0  0
 30 31  1  0  0  0  0
 31 32  2  0  0  0  0
 31 45  1  0  0  0  0
 32 33  1  0  0  0  0
 33 34  2  0  0  0  0
 34 35  1  0  0  0  0
 34 44  1  0  0  0  0
 35 36  2  0  0  0  0
 35 37  1  0  0  0  0
 37 38  1  0  0  0  0
 37 42  1  0  0  0  0
 38 39  1  0  0  0  0
 39 40  2  0  0  0  0
 40 41  1  0  0  0  0
 40 48  1  0  0  0  0
 41 42  1  0  0  0  0
 41 47  1  6  0  0  0
 41 48  1  0  0  0  0
 42 43  1  1  0  0  0
 43 44  1  0  0  0  0
 44 45  2  0  0  0  0
 45 46  1  0  0  0  0
 49 50  2  0  0  0  0
 49 51  1  0  0  0  0
 51 52  2  0  0  0  0
 51 53  1  0  0  0  0
 53 54  2  0  0  0  0
M  CHG  2  21   1  28   1
M  END
$$$$