
 OpenBabel11222001323D

 54 63  0  0  1  0  0  0  0  0999 V2000
    1.6649    4.3098   -2.5500 O   0  0  0  0  0  0  0  0  0  0  0  0
    2.6762    3.6087   -1.9442 C   0  0  0  0  0  0  0  0  0  0  0  0
    2.9647    2.3434   -2.2647 C   0  0  0  0  0  0  0  0  0  0  0  0
    2.2313    1.6680   -3.2319 O   0  0  0  0  0  0  0  0  0  0  0  0
    3.0309    0.7772   -3.9924 C   0  0  2  0  0  0  0  0  0  0  0  0
    2.2595    0.1891   -5.0644 O   0  0  0  0  0  0  0  0  0  0  0  0
    2.3661    0.7633   -6.3243 C   0  0  0  0  0  0  0  0  0  0  0  0
    2.1731    0.0414   -7.4580 C   0  0  0  0  0  0  0  0  0  0  0  0
    2.2820    0.6460   -8.7230 O   0  0  0  0  0  0  0  0  0  0  0  0
    2.4383    2.0294   -8.8526 C   0  0  0  0  0  0  0  0  0  0  0  0
    2.5911    2.8091   -7.7686 C   0  0  0  0  0  0  0  0  0  0  0  0
    2.5951    2.2565   -6.3805 C   0  0  0  0  0  0  0  0  0  0  0  0
    2.7659    4.2970   -7.8648 C   0  0  3  0  0  0  0  0  0  0  0  0
    4.0446    4.6250   -7.3499 O   0  0  0  0  0  0  0  0  0  0  0  0
    4.3485    5.9560   -7.3144 C   0  0  0  0  0  0  0  0  0  0  0  0
    5.2286    6.3816   -6.5810 O   0  0  0  0  0  0  0  0  0  0  0  0
    3.6130    6.7443   -8.1265 O   0  0  0  0  0  0  0  0  0  0  0  0
    2.9374    6.2426   -9.2801 C   0  0  3  0  0  0  0  0  0  0  0  0
    2.7699    4.7645   -9.2640 C   0  0  0  0  0  0  0  0  0  0  0  0
    2.6142    3.9364  -10.3215 C   0  0  0  0  0  0  0  0  0  0  0  0
    2.4390    2.5691  -10.1259 O   0  3  0  0  0  0  0  0  0  0  0  0
    2.5571    4.4149  -11.7229 C   0  0  0  0  0  0  0  0  0  0  0  0
    1.8128    3.6863  -12.7119 O   0  0  0  0  0  0  0  0  0  0  0  0
    1.3544    4.9766  -12.2614 O   0  0  0  0  0  0  0  0  0  0  0  0
    1.6185    6.7515   -9.2800 O   0  0  0  0  0  0  0  0  0  0  0  0
    1.7944   -1.4270   -7.4842 C   0  0  0  0  0  0  0  0  0  0  0  0
    2.2337   -2.2666   -6.4587 C   0  0  0  0  0  0  0  0  0  0  0  0
    1.8616   -3.5467   -6.3772 N   0  3  0  0  0  0  0  0  0  0  0  0
    2.2902   -4.2865   -5.3356 F   0  0  0  0  0  0  0  0  0  0  0  0
    1.0822   -4.1146   -7.2707 N   0  0  0  0  0  0  0  0  0  0  0  0
    0.6403   -3.4032   -8.3072 C   0  0  0  0  0  0  0  0  0  0  0  0
    0.9794   -2.0424   -8.4811 C   0  0  0  0  0  0  0  0  0  0  0  0
    0.4556   -1.4051   -9.6323 C   0  0  0  0  0  0  0  0  0  0  0  0
   -0.3663   -2.0695  -10.5534 C   0  0  0  0  0  0  0  0  0  0  0  0
   -0.8745   -1.3377  -11.7101 C   0  0  0  0  0  0  0  0  0  0  0  0
   -0.3898   -0.1807  -12.0633 N   0  0  0  0  0  0  0  0  0  0  0  0
   -2.0084   -1.9754  -12.4395 C   0  0  0  0  0  0  0  0  0  0  0  0
   -2.8144   -1.2145  -13.1132 N   0  0  0  0  0  0  0  0  0  0  0  0
   -3.8900   -1.8697  -13.7600 N   0  0  0  0  0  0  0  0  0  0  0  0
   -4.4649   -2.8537  -13.1392 C   0  0  0  0  0  0  0  0  0  0  0  0
   -3.5823   -3.8342  -12.4376 C   0  0  2  0  0  0  0  0  0  0  0  0
   -2.1331   -3.4753  -12.2990 C   0  0  2  0  0  0  0  0  0  0  0  0
   -1.6053   -4.0838  -11.1207 O   0  0  0  0  0  0  0  0  0  0  0  0
   -0.7365   -3.3803  -10.3455 C   0  0  0  0  0  0  0  0  0  0  0  0
   -0.2053   -4.0299   -9.2295 C   0  0  0  0  0  0  0  0  0  0  0  0
   -0.5294   -5.3167   -9.0200 F   0  0  0  0  0  0  0  0  0  0  0  0
   -3.9061   -5.2297  -12.5659 O   0  0  0  0  0  0  0  0  0  0  0  0
   -4.5059   -3.0288  -11.7809 O   0  0  0  0  0  0  0  0  0  0  0  0
    3.5760   -0.3425   -3.1251 C   0  0  0  0  0  0  0  0  0  0  0  0
    3.6693   -1.5097   -3.4815 O   0  0  0  0  0  0  0  0  0  0  0  0
    4.1270    0.1678   -1.8130 C   0  0  0  0  0  0  0  0  0  0  0  0
    4.5755   -0.6022   -0.9875 O   0  0  0  0  0  0  0  0  0  0  0  0
    4.1095    1.6718   -1.5816 C   0  0  0  0  0  0  0  0  0  0  0  0
    5.0153    2.2525   -1.0164 O   0  0  0  0  0  0  0  0  0  0  0  0
  1  2  1  0  0  0  0
  2  3  2  0  0  0  0
  3  4  1  0  0  0  0
  3 53  1  0  0  0  0
  4  5  1  0  0  0  0
  5  6  1  6  0  0  0
  5 49  1  0  0  0  0
  6  7  1  0  0  0  0
  7  8  2  0  0  0  0
  7 12  1  0  0  0  0
  8  9  1  0  0  0  0
  8 26  1  0  0  0  0
  9 10  1  0  0  0  0
 10 11  2  0  0  0  0
 10 21  1  0  0  0  0
 11 12  1  0  0  0  0
 11 13  1  0  0  0  0
 13 14  1  0  0  0  0
 13 19  1  0  0  0  0
 14 15  1  0  0  0  0
 15 16  2  0  0  0  0
 15 17  1  0  0  0  0
 17 18  1  0  0  0  0
 18 19  1  0  0  0  0
 18 25  1  0  0  0  0
 19 20  2  0  0  0  0
 20 21  1  0  0  0  0
 20 22  1  0  0  0  0
 22 23  1  0  0  0  0
 22 24  1  0  0  0  0
 23 24  1  0  0  0  0
 26 27  2  0  0  0  0
 26 32  1  0  0  0  0
 27 28  1  0  0  0  0
 28 30  2  0  0  0  0
 28 29  1  0  0  0  0
 30 31  1  0  0  0  0
 31 32  2  0  0  0  0
 31 45  1  0  0  0  0
 32 33  1  0  0  0  0
 33 34  2  0  0  0  0
 34 35  1  0  0  0  0
 34 44  1  0  0  0  0
 35 37  1  0  0  0  0
 35 36  2  0  0  0  0
 37 38  2  0  0  0  0
 38 39  1  0  0  0  0
 39 40  2  0  0  0  0
 40 41  1  0  0  0  0
 40 48  1  0  0  0  0
 41 42  1  0  0  0  0
 41 48  1  0  0  0  0
 41 47  1  6  0  0  0
 42 37  1  1  0  0  0
 42 43  1  0  0  0  0
 43 44  1  0  0  0  0
 44 45  2  0  0  0  0
 45 46  1  0  0  0  0
 49 50  2  0  0  0  0
 49 51  1  0  0  0  0
 51 52  2  0  0  0  0
 51 53  1  0  0  0  0
 53 54  2  0  0  0  0
M  CHG  2  21   1  28   1
M  END
$$$$