
 OpenBabel09262021433D

 52 60  0  0  1  0  0  0  0  0999 V2000
    6.6359   -6.6900    3.8861 O   0  0  0  0  0  0  0  0  0  0  0  0
    6.5365   -5.5148    4.5852 C   0  0  0  0  0  0  0  0  0  0  0  0
    5.7839   -4.4884    4.1728 C   0  0  0  0  0  0  0  0  0  0  0  0
    5.0709   -4.5417    2.9878 O   0  0  0  0  0  0  0  0  0  0  0  0
    3.7344   -4.0601    3.1405 C   0  0  2  0  0  0  0  0  0  0  0  0
    2.9607   -4.2674    1.9479 O   0  0  0  0  0  0  0  0  0  0  0  0
    2.7858   -5.5843    1.5369 C   0  0  0  0  0  0  0  0  0  0  0  0
    2.6289   -5.8959    0.2298 C   0  0  0  0  0  0  0  0  0  0  0  0
    2.4368   -7.2062   -0.2187 O   0  0  0  0  0  0  0  0  0  0  0  0
    2.5013   -8.2564    0.6916 C   0  0  0  0  0  0  0  0  0  0  0  0
    2.6189   -8.0344    2.0095 C   0  0  0  0  0  0  0  0  0  0  0  0
    2.7119   -6.6684    2.5905 C   0  0  0  0  0  0  0  0  0  0  0  0
    2.7388   -9.2090    2.9190 C   0  0  0  0  0  0  0  0  0  0  0  0
    2.8824   -9.0476    4.1940 N   0  0  0  0  0  0  0  0  0  0  0  0
    3.0311  -10.1581    5.0016 C   0  0  0  0  0  0  0  0  0  0  0  0
    3.2267   -9.9768    6.1966 O   0  0  0  0  0  0  0  0  0  0  0  0
    2.9894  -11.4556    4.5299 N   0  0  0  0  0  0  0  0  0  0  0  0
    2.8384  -11.6468    3.2648 C   0  0  0  0  0  0  0  0  0  0  0  0
    2.7071  -10.5525    2.3026 C   0  0  0  0  0  0  0  0  0  0  0  0
    2.5742  -10.6772    0.9670 C   0  0  0  0  0  0  0  0  0  0  0  0
    2.4652   -9.5338    0.1854 N   0  0  0  0  0  0  0  0  0  0  0  0
    2.5454  -11.9703    0.2459 C   0  0  0  0  0  0  0  0  0  0  0  0
    1.5470  -12.9691    0.5124 O   0  0  0  0  0  0  0  0  0  0  0  0
    1.5440  -12.2631   -0.7424 O   0  0  0  0  0  0  0  0  0  0  0  0
    2.6722   -4.8945   -0.8641 C   0  0  0  0  0  0  0  0  0  0  0  0
    3.9052   -4.7046   -1.3796 N   0  0  0  0  0  0  0  0  0  0  0  0
    3.9885   -3.8300   -2.3831 C   0  0  0  0  0  0  0  0  0  0  0  0
    2.9708   -3.1461   -2.9164 N   0  0  0  0  0  0  0  0  0  0  0  0
    1.7360   -3.3375   -2.4186 C   0  0  0  0  0  0  0  0  0  0  0  0
    1.5260   -4.2311   -1.3505 C   0  0  0  0  0  0  0  0  0  0  0  0
    0.2183   -4.4141   -0.8473 C   0  0  0  0  0  0  0  0  0  0  0  0
   -0.8664   -3.7370   -1.4082 C   0  0  0  0  0  0  0  0  0  0  0  0
   -2.2081   -3.9600   -0.8717 C   0  0  0  0  0  0  0  0  0  0  0  0
   -2.3899   -4.4828    0.2160 O   0  0  0  0  0  0  0  0  0  0  0  0
   -3.3688   -3.5887   -1.7543 C   0  0  0  0  0  0  0  0  0  0  0  0
   -4.4919   -4.0270   -1.5290 O   0  0  0  0  0  0  0  0  0  0  0  0
   -3.0197   -2.8224   -3.0091 C   0  0  1  0  0  0  0  0  0  0  0  0
   -1.7289   -2.2103   -3.0744 O   0  0  0  0  0  0  0  0  0  0  0  0
   -0.6878   -2.8725   -2.4749 C   0  0  0  0  0  0  0  0  0  0  0  0
    0.6181   -2.6573   -2.9626 C   0  0  0  0  0  0  0  0  0  0  0  0
    0.8559   -1.5022   -4.3400 S   0  0  0  0  0  0  0  0  0  0  0  0
   -3.3223   -3.6903   -4.2107 C   0  0  1  0  0  0  0  0  0  0  0  0
   -4.7026   -4.0833   -4.3945 O   0  0  0  0  0  0  0  0  0  0  0  0
   -2.5965   -3.3850   -5.4129 O   0  0  0  0  0  0  0  0  0  0  0  0
   -2.3347   -4.5577   -4.8218 C   0  0  0  0  0  0  0  0  0  0  0  0
   -1.3131   -5.0456   -4.3752 O   0  0  0  0  0  0  0  0  0  0  0  0
    3.7247   -2.5756    3.4851 C   0  0  0  0  0  0  0  0  0  0  0  0
    2.8518   -1.7747    3.1810 O   0  0  0  0  0  0  0  0  0  0  0  0
    4.8722   -2.1725    4.3845 C   0  0  0  0  0  0  0  0  0  0  0  0
    5.1185   -0.9967    4.6005 O   0  0  0  0  0  0  0  0  0  0  0  0
    5.7210   -3.2603    5.0086 C   0  0  0  0  0  0  0  0  0  0  0  0
    6.2379   -3.1352    6.1048 O   0  0  0  0  0  0  0  0  0  0  0  0
  1  2  1  0  0  0  0
  2  3  2  0  0  0  0
  3  4  1  0  0  0  0
  3 51  1  0  0  0  0
  4  5  1  0  0  0  0
  5  6  1  6  0  0  0
  5 47  1  0  0  0  0
  6  7  1  0  0  0  0
  7  8  2  0  0  0  0
  7 12  1  0  0  0  0
  8  9  1  0  0  0  0
  8 25  1  0  0  0  0
  9 10  1  0  0  0  0
 10 11  2  0  0  0  0
 10 21  1  0  0  0  0
 11 12  1  0  0  0  0
 11 13  1  0  0  0  0
 13 14  2  0  0  0  0
 13 19  1  0  0  0  0
 14 15  1  0  0  0  0
 15 16  2  0  0  0  0
 15 17  1  0  0  0  0
 17 18  2  0  0  0  0
 18 19  1  0  0  0  0
 19 20  2  0  0  0  0
 20 21  1  0  0  0  0
 20 22  1  0  0  0  0
 22 23  1  0  0  0  0
 22 24  1  0  0  0  0
 23 24  1  0  0  0  0
 25 26  2  0  0  0  0
 25 30  1  0  0  0  0
 26 27  1  0  0  0  0
 27 28  2  0  0  0  0
 28 29  1  0  0  0  0
 29 30  2  0  0  0  0
 29 40  1  0  0  0  0
 30 31  1  0  0  0  0
 31 32  2  0  0  0  0
 32 33  1  0  0  0  0
 32 39  1  0  0  0  0
 33 34  2  0  0  0  0
 33 35  1  0  0  0  0
 35 36  2  0  0  0  0
 37 35  1  1  0  0  0
 37 38  1  0  0  0  0
 37 42  1  0  0  0  0
 38 39  1  0  0  0  0
 39 40  2  0  0  0  0
 40 41  1  0  0  0  0
 42 43  1  6  0  0  0
 42 44  1  0  0  0  0
 42 45  1  0  0  0  0
 44 45  1  0  0  0  0
 45 46  2  0  0  0  0
 47 48  2  0  0  0  0
 47 49  1  0  0  0  0
 49 50  2  0  0  0  0
 49 51  1  0  0  0  0
 51 52  2  0  0  0  0
M  END
$$$$