
 OpenBabel11212002003D

 54 62  0  0  1  0  0  0  0  0999 V2000
    7.3778   -1.5177    6.5157 O   0  0  0  0  0  0  0  0  0  0  0  0
    7.1565   -0.3658    5.8040 C   0  0  0  0  0  0  0  0  0  0  0  0
    6.2011   -0.2537    4.8744 C   0  0  0  0  0  0  0  0  0  0  0  0
    5.3894   -1.3222    4.5274 O   0  0  0  0  0  0  0  0  0  0  0  0
    4.0122   -0.9517    4.4332 C   0  0  2  0  0  0  0  0  0  0  0  0
    3.2058   -2.0958    4.0758 O   0  0  0  0  0  0  0  0  0  0  0  0
    3.2198   -3.1958    4.9222 C   0  0  0  0  0  0  0  0  0  0  0  0
    2.9836   -4.4397    4.4480 C   0  0  0  0  0  0  0  0  0  0  0  0
    2.9463   -5.5717    5.2677 O   0  0  0  0  0  0  0  0  0  0  0  0
    3.2642   -5.4520    6.6234 C   0  0  0  0  0  0  0  0  0  0  0  0
    3.5070   -4.2504    7.1788 C   0  0  0  0  0  0  0  0  0  0  0  0
    3.4254   -2.9712    6.3991 C   0  0  0  0  0  0  0  0  0  0  0  0
    3.9383   -4.1076    8.6093 C   0  0  3  0  0  0  0  0  0  0  0  0
    2.9515   -3.3830    9.3151 O   0  0  0  0  0  0  0  0  0  0  0  0
    3.2442   -3.1165   10.6198 C   0  0  0  0  0  0  0  0  0  0  0  0
    2.6695   -2.2386   11.2400 O   0  0  0  0  0  0  0  0  0  0  0  0
    4.2382   -3.8691   11.1576 O   0  0  0  0  0  0  0  0  0  0  0  0
    4.5014   -5.1896   10.6934 C   0  0  3  0  0  0  0  0  0  0  0  0
    4.0411   -5.4122    9.2969 C   0  0  0  0  0  0  0  0  0  0  0  0
    3.7516   -6.5879    8.6965 C   0  0  0  0  0  0  0  0  0  0  0  0
    3.3308   -6.6077    7.3714 O   0  3  0  0  0  0  0  0  0  0  0  0
    3.8621   -7.9124    9.3590 C   0  0  0  0  0  0  0  0  0  0  0  0
    2.7115   -8.7569    9.5018 O   0  0  0  0  0  0  0  0  0  0  0  0
    3.7593   -9.1219    8.5843 O   0  0  0  0  0  0  0  0  0  0  0  0
    5.9031   -5.3772   10.6299 O   0  0  0  0  0  0  0  0  0  0  0  0
    2.6952   -4.7137    3.0218 C   0  0  0  0  0  0  0  0  0  0  0  0
    1.3752   -4.6825    2.5944 C   0  0  0  0  0  0  0  0  0  0  0  0
    1.0170   -4.9118    1.3156 N   0  0  0  0  0  0  0  0  0  0  0  0
    1.9689   -5.1346    0.3732 N   0  0  0  0  0  0  0  0  0  0  0  0
    3.2584   -5.1339    0.7074 C   0  0  0  0  0  0  0  0  0  0  0  0
    3.6867   -4.9652    2.0386 C   0  0  0  0  0  0  0  0  0  0  0  0
    5.0749   -5.0290    2.3020 C   0  0  0  0  0  0  0  0  0  0  0  0
    5.9978   -5.1948    1.2565 C   0  0  0  0  0  0  0  0  0  0  0  0
    7.4388   -5.1810    1.5417 C   0  0  0  0  0  0  0  0  0  0  0  0
    7.8675   -5.0183    2.6687 O   0  0  0  0  0  0  0  0  0  0  0  0
    8.3342   -5.3890    0.3475 C   0  0  0  0  0  0  0  0  0  0  0  0
    9.3409   -6.0706    0.4376 O   0  0  0  0  0  0  0  0  0  0  0  0
    7.7625   -4.8221   -0.9295 C   0  0  1  0  0  0  0  0  0  0  0  0
    6.4032   -5.3070   -1.1449 O   0  0  0  0  0  0  0  0  0  0  0  0
    5.5666   -5.2976   -0.0601 C   0  0  0  0  0  0  0  0  0  0  0  0
    4.1902   -5.2935   -0.3088 C   0  0  0  0  0  0  0  0  0  0  0  0
    3.7122   -5.3576   -1.6045 N   0  3  0  0  0  0  0  0  0  0  0  0
    3.3648   -5.4498   -2.6384 N   0  0  0  0  0  0  0  0  0  0  0  0
    7.8784   -3.3162   -1.0038 C   0  0  1  0  0  0  0  0  0  0  0  0
    9.2032   -2.7833   -0.8588 O   0  0  0  0  0  0  0  0  0  0  0  0
    7.0880   -2.6954   -2.0147 O   0  0  0  0  0  0  0  0  0  0  0  0
    6.7778   -2.3849   -0.7416 C   0  0  0  0  0  0  0  0  0  0  0  0
    5.7254   -2.5500   -0.1515 O   0  0  0  0  0  0  0  0  0  0  0  0
    3.7604    0.1185    3.3750 C   0  0  0  0  0  0  0  0  0  0  0  0
    2.6970    0.3187    2.8080 O   0  0  0  0  0  0  0  0  0  0  0  0
    4.9704    0.9788    3.1071 C   0  0  0  0  0  0  0  0  0  0  0  0
    5.1420    1.4999    2.0188 O   0  0  0  0  0  0  0  0  0  0  0  0
    6.0282    1.0525    4.1827 C   0  0  0  0  0  0  0  0  0  0  0  0
    6.6119    2.0811    4.4631 O   0  0  0  0  0  0  0  0  0  0  0  0
  1  2  1  0  0  0  0
  2  3  2  0  0  0  0
  3  4  1  0  0  0  0
  3 53  1  0  0  0  0
  4  5  1  0  0  0  0
  5  6  1  6  0  0  0
  5 49  1  0  0  0  0
  6  7  1  0  0  0  0
  7  8  2  0  0  0  0
  7 12  1  0  0  0  0
  8  9  1  0  0  0  0
  8 26  1  0  0  0  0
  9 10  1  0  0  0  0
 10 11  2  0  0  0  0
 10 21  1  0  0  0  0
 11 12  1  0  0  0  0
 11 13  1  0  0  0  0
 13 14  1  0  0  0  0
 13 19  1  0  0  0  0
 14 15  1  0  0  0  0
 15 16  2  0  0  0  0
 15 17  1  0  0  0  0
 17 18  1  0  0  0  0
 18 19  1  0  0  0  0
 18 25  1  0  0  0  0
 19 20  2  0  0  0  0
 20 21  1  0  0  0  0
 20 22  1  0  0  0  0
 22 23  1  0  0  0  0
 22 24  1  0  0  0  0
 23 24  1  0  0  0  0
 26 27  2  0  0  0  0
 26 31  1  0  0  0  0
 27 28  1  0  0  0  0
 28 29  2  0  0  0  0
 29 30  1  0  0  0  0
 30 31  2  0  0  0  0
 30 41  1  0  0  0  0
 31 32  1  0  0  0  0
 32 33  2  0  0  0  0
 33 34  1  0  0  0  0
 33 40  1  0  0  0  0
 34 35  2  0  0  0  0
 34 36  1  0  0  0  0
 36 37  2  0  0  0  0
 38 36  1  1  0  0  0
 38 39  1  0  0  0  0
 38 44  1  0  0  0  0
 39 40  1  0  0  0  0
 40 41  2  0  0  0  0
 41 42  1  0  0  0  0
 42 43  3  0  0  0  0
 44 45  1  1  0  0  0
 44 46  1  0  0  0  0
 44 47  1  0  0  0  0
 46 47  1  0  0  0  0
 47 48  2  0  0  0  0
 49 50  2  0  0  0  0
 49 51  1  0  0  0  0
 51 52  2  0  0  0  0
 51 53  1  0  0  0  0
 53 54  2  0  0  0  0
M  CHG  2  21   1  42   1
M  END
$$$$