
 OpenBabel11262001123D

 54 62  0  0  1  0  0  0  0  0999 V2000
   -0.8432    3.6184   -5.5326 O   0  0  0  0  0  0  0  0  0  0  0  0
   -0.4006    2.5317   -4.8224 C   0  0  0  0  0  0  0  0  0  0  0  0
    0.7174    2.5376   -4.0838 C   0  0  0  0  0  0  0  0  0  0  0  0
    1.5216    3.6649   -4.0235 O   0  0  0  0  0  0  0  0  0  0  0  0
    2.4749    3.7373   -2.9638 C   0  0  2  0  0  0  0  0  0  0  0  0
    3.5430    4.6765   -3.3464 O   0  0  0  0  0  0  0  0  0  0  0  0
    3.2434    6.0250   -3.5005 C   0  0  0  0  0  0  0  0  0  0  0  0
    4.0040    6.8167   -4.2921 C   0  0  0  0  0  0  0  0  0  0  0  0
    3.8180    8.2178   -4.3592 O   0  0  0  0  0  0  0  0  0  0  0  0
    2.7647    8.8334   -3.6349 C   0  0  0  0  0  0  0  0  0  0  0  0
    1.9269    8.0875   -2.8840 C   0  0  0  0  0  0  0  0  0  0  0  0
    2.1032    6.6053   -2.6964 C   0  0  0  0  0  0  0  0  0  0  0  0
    0.7173    8.6872   -2.1935 C   0  0  3  0  0  0  0  0  0  0  0  0
    0.7832    8.3881   -0.8122 O   0  0  0  0  0  0  0  0  0  0  0  0
   -0.1796    8.9543   -0.0445 C   0  0  0  0  0  0  0  0  0  0  0  0
   -0.4059    8.4945    1.1231 N   0  0  0  0  0  0  0  0  0  0  0  0
   -0.8786   10.0027   -0.5248 O   0  0  0  0  0  0  0  0  0  0  0  0
   -0.4507   10.7044   -1.5883 C   0  0  0  0  0  0  0  0  0  0  0  0
   -0.9948   11.7175   -1.9986 O   0  0  0  0  0  0  0  0  0  0  0  0
    0.6946   10.1518   -2.3084 C   0  0  0  0  0  0  0  0  0  0  0  0
    1.5925   10.8750   -3.0097 C   0  0  0  0  0  0  0  0  0  0  0  0
    2.6046   10.2167   -3.7128 O   0  3  0  0  0  0  0  0  0  0  0  0
    1.6251   12.3658   -3.1110 C   0  0  0  0  0  0  0  0  0  0  0  0
    2.8862   13.0338   -3.2881 O   0  0  0  0  0  0  0  0  0  0  0  0
    1.9325   12.9962   -4.3609 O   0  0  0  0  0  0  0  0  0  0  0  0
    5.1364    6.2713   -5.1235 C   0  0  0  0  0  0  0  0  0  0  0  0
    6.4276    6.2473   -4.5774 C   0  0  0  0  0  0  0  0  0  0  0  0
    7.4593    5.8160   -5.3105 N   0  3  0  0  0  0  0  0  0  0  0  0
    8.7004    5.8237   -4.7791 F   0  0  0  0  0  0  0  0  0  0  0  0
    7.3142    5.4011   -6.5507 N   0  0  0  0  0  0  0  0  0  0  0  0
    6.0852    5.3761   -7.1040 C   0  0  0  0  0  0  0  0  0  0  0  0
    4.9563    5.8061   -6.4105 N   0  3  0  0  0  0  0  0  0  0  0  0
    3.7428    5.7720   -7.0294 C   0  0  0  0  0  0  0  0  0  0  0  0
    3.5958    5.3489   -8.3485 C   0  0  0  0  0  0  0  0  0  0  0  0
    2.2912    5.4681   -8.9810 C   0  0  0  0  0  0  0  0  0  0  0  0
    1.3609    5.8831   -8.3113 O   0  0  0  0  0  0  0  0  0  0  0  0
    2.2171    5.1981  -10.4643 C   0  0  0  0  0  0  0  0  0  0  0  0
    1.3333    5.7080  -11.1306 O   0  0  0  0  0  0  0  0  0  0  0  0
    3.3247    4.3109  -10.9907 C   0  0  1  0  0  0  0  0  0  0  0  0
    4.6182    4.5282  -10.3823 O   0  0  0  0  0  0  0  0  0  0  0  0
    4.6803    4.9260   -9.0738 C   0  0  0  0  0  0  0  0  0  0  0  0
    5.9403    4.9223   -8.4486 C   0  0  0  0  0  0  0  0  0  0  0  0
    7.0771    4.6977   -9.2627 N   0  0  0  0  0  0  0  0  0  0  0  0
    2.9388    2.8762  -10.8701 C   0  0  1  0  0  0  0  0  0  0  0  0
    2.6606    2.4032   -9.5265 O   0  0  0  0  0  0  0  0  0  0  0  0
    2.0735    2.3821  -11.8864 O   0  0  0  0  0  0  0  0  0  0  0  0
    3.3140    1.8465  -11.8511 C   0  0  0  0  0  0  0  0  0  0  0  0
    3.6862    0.7245  -11.6397 O   0  0  0  0  0  0  0  0  0  0  0  0
    3.1424    2.3918   -2.6787 C   0  0  3  0  0  0  0  0  0  0  0  0
    2.1286    1.3246   -2.3325 C   0  0  3  0  0  0  0  0  0  0  0  0
    1.0414    1.2589   -3.3665 C   0  0  0  0  0  0  0  0  0  0  0  0
    0.3856    0.2391   -3.5628 O   0  0  0  0  0  0  0  0  0  0  0  0
    2.7918    0.1434   -2.1813 F   0  0  0  0  0  0  0  0  0  0  0  0
    3.8414    2.0402   -3.8036 F   0  0  0  0  0  0  0  0  0  0  0  0
  1  2  1  0  0  0  0
  2  3  2  0  0  0  0
  3  4  1  0  0  0  0
  3 51  1  0  0  0  0
  4  5  1  0  0  0  0
  5  6  1  6  0  0  0
  5 49  1  0  0  0  0
  6  7  1  0  0  0  0
  7  8  2  0  0  0  0
  7 12  1  0  0  0  0
  8  9  1  0  0  0  0
  8 26  1  0  0  0  0
  9 10  1  0  0  0  0
 10 11  2  0  0  0  0
 10 22  1  0  0  0  0
 11 12  1  0  0  0  0
 11 13  1  0  0  0  0
 13 14  1  0  0  0  0
 13 20  1  0  0  0  0
 14 15  1  0  0  0  0
 15 16  2  0  0  0  0
 15 17  1  0  0  0  0
 17 18  1  0  0  0  0
 18 19  2  0  0  0  0
 18 20  1  0  0  0  0
 20 21  2  0  0  0  0
 21 22  1  0  0  0  0
 21 23  1  0  0  0  0
 23 24  1  0  0  0  0
 23 25  1  0  0  0  0
 24 25  1  0  0  0  0
 26 27  2  0  0  0  0
 26 32  1  0  0  0  0
 27 28  1  0  0  0  0
 28 29  1  0  0  0  0
 28 30  2  0  0  0  0
 30 31  1  0  0  0  0
 31 32  2  0  0  0  0
 31 42  1  0  0  0  0
 32 33  1  0  0  0  0
 33 34  2  0  0  0  0
 34 35  1  0  0  0  0
 34 41  1  0  0  0  0
 35 36  2  0  0  0  0
 35 37  1  0  0  0  0
 37 38  2  0  0  0  0
 39 37  1  1  0  0  0
 39 40  1  0  0  0  0
 39 44  1  0  0  0  0
 40 41  1  0  0  0  0
 41 42  2  0  0  0  0
 42 43  1  0  0  0  0
 44 45  1  1  0  0  0
 44 46  1  0  0  0  0
 44 47  1  0  0  0  0
 46 47  1  0  0  0  0
 47 48  2  0  0  0  0
 49 50  1  0  0  0  0
 49 54  1  0  0  0  0
 50 51  1  0  0  0  0
 50 53  1  0  0  0  0
 51 52  2  0  0  0  0
M  CHG  3  22   1  28   1  32   1
M  END
$$$$