
 OpenBabel11232003383D

 54 62  0  0  1  0  0  0  0  0999 V2000
    2.9607   -1.3691   -2.3453 O   0  0  0  0  0  0  0  0  0  0  0  0
    2.5735   -0.8071   -1.1587 C   0  0  0  0  0  0  0  0  0  0  0  0
    2.3494   -1.5132   -0.0422 C   0  0  0  0  0  0  0  0  0  0  0  0
    2.4636   -2.9008   -0.0031 O   0  0  0  0  0  0  0  0  0  0  0  0
    2.8653   -3.5218    1.2159 C   0  0  2  0  0  0  0  0  0  0  0  0
    2.0570   -4.7121    1.4933 O   0  0  0  0  0  0  0  0  0  0  0  0
    2.4008   -5.9919    1.0799 C   0  0  0  0  0  0  0  0  0  0  0  0
    1.9855   -7.1036    1.7496 C   0  0  0  0  0  0  0  0  0  0  0  0
    2.3311   -8.3630    1.2835 O   0  0  0  0  0  0  0  0  0  0  0  0
    2.9241   -8.5883    0.0757 C   0  0  0  0  0  0  0  0  0  0  0  0
    3.3525   -7.5694   -0.6724 C   0  0  0  0  0  0  0  0  0  0  0  0
    3.2041   -6.1423   -0.2066 C   0  0  0  0  0  0  0  0  0  0  0  0
    3.9433   -7.8642   -2.0153 C   0  0  3  0  0  0  0  0  0  0  0  0
    5.1208   -7.1077   -2.2304 O   0  0  0  0  0  0  0  0  0  0  0  0
    5.5317   -7.1567   -3.5330 C   0  0  0  0  0  0  0  0  0  0  0  0
    6.1431   -6.2561   -4.0746 O   0  0  0  0  0  0  0  0  0  0  0  0
    5.1800   -8.3177   -4.1721 O   0  0  0  0  0  0  0  0  0  0  0  0
    5.2793   -9.4425   -3.3318 C   0  0  3  0  0  0  0  0  0  0  0  0
    4.3221   -9.3210   -2.1966 C   0  0  0  0  0  0  0  0  0  0  0  0
    3.8480  -10.3035   -1.3893 C   0  0  0  0  0  0  0  0  0  0  0  0
    3.0718   -9.9175   -0.3023 N   0  0  0  0  0  0  0  0  0  0  0  0
    4.1291  -11.7421   -1.5386 C   0  0  0  0  0  0  0  0  0  0  0  0
    3.7551  -12.4519   -2.7941 N   0  3  0  0  0  0  0  0  0  0  0  0
    3.0163  -12.6214   -1.9928 N   0  3  0  0  0  0  0  0  0  0  0  0
    4.8883  -10.6226   -4.0429 O   0  0  0  0  0  0  0  0  0  0  0  0
    1.1905   -7.2015    3.0391 C   0  0  0  0  0  0  0  0  0  0  0  0
    0.7388   -6.0471    3.6607 C   0  0  0  0  0  0  0  0  0  0  0  0
    0.0930   -6.0759    4.8269 N   0  3  0  0  0  0  0  0  0  0  0  0
   -0.3116   -4.9104    5.3676 F   0  0  0  0  0  0  0  0  0  0  0  0
   -0.1693   -7.1926    5.4705 N   0  0  0  0  0  0  0  0  0  0  0  0
    0.1497   -8.3674    4.9250 C   0  0  0  0  0  0  0  0  0  0  0  0
    0.8347   -8.4337    3.6916 C   0  0  0  0  0  0  0  0  0  0  0  0
    1.0801   -9.7374    3.1936 C   0  0  0  0  0  0  0  0  0  0  0  0
    0.5711  -10.8892    3.7708 C   0  0  0  0  0  0  0  0  0  0  0  0
    0.7406  -12.1656    3.0644 C   0  0  0  0  0  0  0  0  0  0  0  0
    1.3067  -12.2385    1.9775 O   0  0  0  0  0  0  0  0  0  0  0  0
    0.1550  -13.3608    3.7689 C   0  0  0  0  0  0  0  0  0  0  0  0
    0.6538  -14.4597    3.5891 O   0  0  0  0  0  0  0  0  0  0  0  0
   -0.9941  -13.0129    4.6970 C   0  0  1  0  0  0  0  0  0  0  0  0
   -0.6484  -11.9125    5.5727 O   0  0  0  0  0  0  0  0  0  0  0  0
   -0.1096  -10.8114    4.9610 C   0  0  0  0  0  0  0  0  0  0  0  0
   -0.2308   -9.5592    5.5965 C   0  0  0  0  0  0  0  0  0  0  0  0
   -0.9735   -9.4898    6.7996 N   0  0  0  0  0  0  0  0  0  0  0  0
   -2.3149  -12.7368    4.0198 C   0  0  1  0  0  0  0  0  0  0  0  0
   -3.4031  -12.3956    4.8969 O   0  0  0  0  0  0  0  0  0  0  0  0
   -2.2790  -11.9544    2.8312 O   0  0  0  0  0  0  0  0  0  0  0  0
   -2.6551  -13.2557    2.6919 C   0  0  0  0  0  0  0  0  0  0  0  0
   -2.1322  -14.0705    1.9714 O   0  0  0  0  0  0  0  0  0  0  0  0
    2.6683   -2.7148    2.4956 C   0  0  0  0  0  0  0  0  0  0  0  0
    3.1230   -2.9971    3.5953 O   0  0  0  0  0  0  0  0  0  0  0  0
    1.6858   -1.6018    2.3317 C   0  0  0  0  0  0  0  0  0  0  0  0
    0.7071   -1.5502    3.0571 O   0  0  0  0  0  0  0  0  0  0  0  0
    1.8644   -0.7284    1.1277 C   0  0  0  0  0  0  0  0  0  0  0  0
    1.6451    0.4667    1.1580 O   0  0  0  0  0  0  0  0  0  0  0  0
  1  2  1  0  0  0  0
  2  3  2  0  0  0  0
  3  4  1  0  0  0  0
  3 53  1  0  0  0  0
  4  5  1  0  0  0  0
  5  6  1  1  0  0  0
  5 49  1  0  0  0  0
  6  7  1  0  0  0  0
  7  8  2  0  0  0  0
  7 12  1  0  0  0  0
  8  9  1  0  0  0  0
  8 26  1  0  0  0  0
  9 10  1  0  0  0  0
 10 11  2  0  0  0  0
 10 21  1  0  0  0  0
 11 12  1  0  0  0  0
 11 13  1  0  0  0  0
 13 14  1  0  0  0  0
 13 19  1  0  0  0  0
 14 15  1  0  0  0  0
 15 16  2  0  0  0  0
 15 17  1  0  0  0  0
 17 18  1  0  0  0  0
 18 19  1  0  0  0  0
 18 25  1  0  0  0  0
 19 20  2  0  0  0  0
 20 21  1  0  0  0  0
 20 22  1  0  0  0  0
 22 23  1  0  0  0  0
 22 24  1  0  0  0  0
 23 24  3  0  0  0  0
 26 27  2  0  0  0  0
 26 32  1  0  0  0  0
 27 28  1  0  0  0  0
 28 29  1  0  0  0  0
 28 30  2  0  0  0  0
 30 31  1  0  0  0  0
 31 32  2  0  0  0  0
 31 42  1  0  0  0  0
 32 33  1  0  0  0  0
 33 34  2  0  0  0  0
 34 35  1  0  0  0  0
 34 41  1  0  0  0  0
 35 36  2  0  0  0  0
 35 37  1  0  0  0  0
 37 38  2  0  0  0  0
 39 37  1  6  0  0  0
 39 40  1  0  0  0  0
 39 44  1  0  0  0  0
 40 41  1  0  0  0  0
 41 42  2  0  0  0  0
 42 43  1  0  0  0  0
 44 45  1  1  0  0  0
 44 46  1  0  0  0  0
 44 47  1  0  0  0  0
 46 47  1  0  0  0  0
 47 48  2  0  0  0  0
 49 50  2  0  0  0  0
 49 51  1  0  0  0  0
 51 52  2  0  0  0  0
 51 53  1  0  0  0  0
 53 54  2  0  0  0  0
M  CHG  3  23   1  24   1  28   1
M  END
$$$$