
 OpenBabel11232002293D

 53 62  0  0  1  0  0  0  0  0999 V2000
   19.4491    0.8994   -4.9163 O   0  0  0  0  0  0  0  0  0  0  0  0
   19.1789   -0.4447   -4.9217 C   0  0  0  0  0  0  0  0  0  0  0  0
   17.9301   -0.9264   -4.9587 C   0  0  0  0  0  0  0  0  0  0  0  0
   16.8379   -0.0649   -4.9808 O   0  0  0  0  0  0  0  0  0  0  0  0
   15.6427   -0.6094   -5.5335 C   0  0  2  0  0  0  0  0  0  0  0  0
   14.5420    0.3350   -5.5150 O   0  0  0  0  0  0  0  0  0  0  0  0
   14.4393    1.2182   -6.5847 C   0  0  0  0  0  0  0  0  0  0  0  0
   13.2513    1.7638   -6.9464 C   0  0  0  0  0  0  0  0  0  0  0  0
   13.1276    2.6348   -8.0339 O   0  0  0  0  0  0  0  0  0  0  0  0
   14.2642    3.0523   -8.7179 C   0  0  0  0  0  0  0  0  0  0  0  0
   15.4871    2.5901   -8.4140 C   0  0  0  0  0  0  0  0  0  0  0  0
   15.7139    1.6136   -7.3099 C   0  0  0  0  0  0  0  0  0  0  0  0
   16.7067    3.0937   -9.1447 C   0  0  3  0  0  0  0  0  0  0  0  0
   17.3509    1.9569   -9.7882 N   0  0  0  0  0  0  0  0  0  0  0  0
   18.4794    2.2234  -10.4895 C   0  0  0  0  0  0  0  0  0  0  0  0
   19.4968    1.4429  -10.4771 N   0  0  0  0  0  0  0  0  0  0  0  0
   18.4387    3.3305  -11.2586 N   0  0  0  0  0  0  0  0  0  0  0  0
   17.6704    4.5123  -10.9388 C   0  0  0  0  0  0  0  0  0  0  0  0
   16.4182    4.1007  -10.2243 C   0  0  0  0  0  0  0  0  0  0  0  0
   15.1542    4.5138  -10.4730 C   0  0  0  0  0  0  0  0  0  0  0  0
   14.1127    3.9867   -9.7127 N   0  0  0  0  0  0  0  0  0  0  0  0
   14.7801    5.5019  -11.5138 C   0  0  0  0  0  0  0  0  0  0  0  0
   14.4482    5.0991  -12.8509 O   0  0  0  0  0  0  0  0  0  0  0  0
   13.4261    5.6302  -11.9854 O   0  0  0  0  0  0  0  0  0  0  0  0
   11.9470    1.5296   -6.2678 C   0  0  0  0  0  0  0  0  0  0  0  0
   11.1538    0.4682   -6.6907 C   0  0  0  0  0  0  0  0  0  0  0  0
    9.9414    0.2642   -6.1592 N   0  3  0  0  0  0  0  0  0  0  0  0
    9.2161   -0.7968   -6.5634 F   0  0  0  0  0  0  0  0  0  0  0  0
    9.4139    1.0626   -5.2493 N   0  0  0  0  0  0  0  0  0  0  0  0
   10.1187    2.0981   -4.7881 C   0  0  0  0  0  0  0  0  0  0  0  0
   11.4202    2.3749   -5.2583 C   0  0  0  0  0  0  0  0  0  0  0  0
   12.1148    3.4653   -4.6801 C   0  0  0  0  0  0  0  0  0  0  0  0
   11.5324    4.2538   -3.6734 C   0  0  0  0  0  0  0  0  0  0  0  0
   10.2340    4.0076   -3.2549 C   0  0  0  0  0  0  0  0  0  0  0  0
    9.5543    2.9230   -3.8064 C   0  0  0  0  0  0  0  0  0  0  0  0
    8.3137    2.6482   -3.3691 F   0  0  0  0  0  0  0  0  0  0  0  0
    9.6062    4.7613   -2.2924 O   0  0  0  0  0  0  0  0  0  0  0  0
   10.1484    6.1010   -2.1714 C   0  0  1  0  0  0  0  0  0  0  0  0
   11.6017    6.1802   -1.9992 C   0  0  0  0  0  0  0  0  0  0  0  0
   12.1637    6.8490   -1.1511 O   0  0  0  0  0  0  0  0  0  0  0  0
   12.3165    5.3143   -3.0150 C   0  0  0  0  0  0  0  0  0  0  0  0
   13.4978    5.4713   -3.2764 O   0  0  0  0  0  0  0  0  0  0  0  0
    9.6126    7.0492   -3.0614 O   0  0  0  0  0  0  0  0  0  0  0  0
    9.2987    7.2268   -1.6437 C   0  0  1  0  0  0  0  0  0  0  0  0
    7.9598    6.5146   -1.0526 O   0  0  0  0  0  0  0  0  0  0  0  0
    7.9726    7.6813   -1.6034 C   0  0  0  0  0  0  0  0  0  0  0  0
    7.1693    8.6028   -1.8809 N   0  0  0  0  0  0  0  0  0  0  0  0
   15.2368   -1.8233   -4.7232 C   0  0  0  0  0  0  0  0  0  0  0  0
   14.1428   -2.0098   -4.2099 O   0  0  0  0  0  0  0  0  0  0  0  0
   16.3356   -2.8565   -4.6747 C   0  0  0  0  0  0  0  0  0  0  0  0
   16.0563   -4.0325   -4.5108 O   0  0  0  0  0  0  0  0  0  0  0  0
   17.7655   -2.4098   -4.9100 C   0  0  0  0  0  0  0  0  0  0  0  0
   18.6707   -3.2102   -5.0713 O   0  0  0  0  0  0  0  0  0  0  0  0
  1  2  1  0  0  0  0
  2  3  2  0  0  0  0
  3  4  1  0  0  0  0
  3 52  1  0  0  0  0
  4  5  1  0  0  0  0
  5  6  1  1  0  0  0
  5 48  1  0  0  0  0
  6  7  1  0  0  0  0
  7  8  2  0  0  0  0
  7 12  1  0  0  0  0
  8  9  1  0  0  0  0
  8 25  1  0  0  0  0
  9 10  1  0  0  0  0
 10 11  2  0  0  0  0
 10 21  1  0  0  0  0
 11 12  1  0  0  0  0
 11 13  1  0  0  0  0
 13 14  1  0  0  0  0
 13 19  1  0  0  0  0
 14 15  1  0  0  0  0
 15 16  2  0  0  0  0
 15 17  1  0  0  0  0
 17 18  1  0  0  0  0
 18 19  1  0  0  0  0
 19 20  2  0  0  0  0
 20 21  1  0  0  0  0
 20 22  1  0  0  0  0
 22 23  1  0  0  0  0
 22 24  1  0  0  0  0
 23 24  1  0  0  0  0
 25 26  2  0  0  0  0
 25 31  1  0  0  0  0
 26 27  1  0  0  0  0
 27 28  1  0  0  0  0
 27 29  2  0  0  0  0
 29 30  1  0  0  0  0
 30 31  2  0  0  0  0
 30 35  1  0  0  0  0
 31 32  1  0  0  0  0
 32 33  2  0  0  0  0
 33 34  1  0  0  0  0
 33 41  1  0  0  0  0
 34 35  2  0  0  0  0
 34 37  1  0  0  0  0
 35 36  1  0  0  0  0
 38 37  1  6  0  0  0
 38 39  1  0  0  0  0
 38 43  1  0  0  0  0
 38 44  1  0  0  0  0
 39 40  2  0  0  0  0
 39 41  1  0  0  0  0
 41 42  2  0  0  0  0
 44 43  1  6  0  0  0
 44 45  1  0  0  0  0
 44 46  1  0  0  0  0
 45 46  1  0  0  0  0
 46 47  2  0  0  0  0
 48 49  2  0  0  0  0
 48 50  1  0  0  0  0
 50 51  2  0  0  0  0
 50 52  1  0  0  0  0
 52 53  2  0  0  0  0
M  CHG  1  27   1
M  END
$$$$