
 OpenBabel09232018133D

 51 59  0  0  1  0  0  0  0  0999 V2000
    0.9595   -1.0023    6.6958 O   0  0  0  0  0  0  0  0  0  0  0  0
    1.1986   -1.5802    5.4751 C   0  0  0  0  0  0  0  0  0  0  0  0
    1.1564   -0.8889    4.3302 C   0  0  0  0  0  0  0  0  0  0  0  0
    0.8429    0.4577    4.3261 O   0  0  0  0  0  0  0  0  0  0  0  0
    1.6358    1.2200    3.4119 C   0  0  2  0  0  0  0  0  0  0  0  0
    1.4601    2.6240    3.6145 O   0  0  0  0  0  0  0  0  0  0  0  0
    1.8697    3.1706    4.8303 C   0  0  0  0  0  0  0  0  0  0  0  0
    1.7387    4.4948    5.0710 C   0  0  0  0  0  0  0  0  0  0  0  0
    2.1049    5.1003    6.2715 O   0  0  0  0  0  0  0  0  0  0  0  0
    2.7801    4.3534    7.2250 C   0  0  0  0  0  0  0  0  0  0  0  0
    2.9960    3.0411    7.0595 C   0  0  0  0  0  0  0  0  0  0  0  0
    2.4815    2.2819    5.8892 C   0  0  0  0  0  0  0  0  0  0  0  0
    3.8095    2.3252    8.0780 C   0  0  0  0  0  0  0  0  0  0  0  0
    4.0767    1.0677    7.9416 N   0  0  0  0  0  0  0  0  0  0  0  0
    4.8529    0.4365    8.8909 C   0  0  0  0  0  0  0  0  0  0  0  0
    5.0869   -0.7560    8.7388 O   0  0  0  0  0  0  0  0  0  0  0  0
    5.3733    1.0779    9.9982 N   0  0  0  0  0  0  0  0  0  0  0  0
    5.1253    2.3325   10.1583 C   0  0  0  0  0  0  0  0  0  0  0  0
    4.3111    3.1127    9.2260 C   0  0  0  0  0  0  0  0  0  0  0  0
    4.0071    4.4232    9.3255 C   0  0  0  0  0  0  0  0  0  0  0  0
    3.2305    5.0146    8.3385 N   0  0  0  0  0  0  0  0  0  0  0  0
    4.4525    5.3197   10.4180 C   0  0  0  0  0  0  0  0  0  0  0  0
    5.6880    6.0461   10.3373 O   0  0  0  0  0  0  0  0  0  0  0  0
    4.4341    6.7527   10.2773 O   0  0  0  0  0  0  0  0  0  0  0  0
    1.2297    5.4422    4.0641 C   0  0  0  0  0  0  0  0  0  0  0  0
    2.2039    5.9993    3.2973 N   0  0  0  0  0  0  0  0  0  0  0  0
    1.8185    6.8473    2.3253 C   0  0  0  0  0  0  0  0  0  0  0  0
    0.4997    7.1745    2.0681 C   0  0  0  0  0  0  0  0  0  0  0  0
   -0.5032    6.6152    2.8651 C   0  0  0  0  0  0  0  0  0  0  0  0
   -0.1449    5.7362    3.9135 C   0  0  0  0  0  0  0  0  0  0  0  0
   -1.1742    5.2295    4.7387 C   0  0  0  0  0  0  0  0  0  0  0  0
   -2.5115    5.5687    4.5057 C   0  0  0  0  0  0  0  0  0  0  0  0
   -2.8633    6.3792    3.4344 C   0  0  0  0  0  0  0  0  0  0  0  0
   -1.8579    6.9178    2.6318 C   0  0  0  0  0  0  0  0  0  0  0  0
   -4.1429    6.7253    3.1087 O   0  0  0  0  0  0  0  0  0  0  0  0
   -5.1929    5.9298    3.6721 C   0  0  2  0  0  0  0  0  0  0  0  0
   -4.9715    5.5082    5.1022 C   0  0  0  0  0  0  0  0  0  0  0  0
   -5.8693    5.3730    5.9213 O   0  0  0  0  0  0  0  0  0  0  0  0
   -3.5561    5.0896    5.4145 C   0  0  0  0  0  0  0  0  0  0  0  0
   -3.3173    4.3605    6.3623 O   0  0  0  0  0  0  0  0  0  0  0  0
   -5.5320    4.7730    2.7784 C   0  0  1  0  0  0  0  0  0  0  0  0
   -5.9782    5.1130    1.4441 O   0  0  0  0  0  0  0  0  0  0  0  0
   -4.6567    3.6506    2.8785 O   0  0  0  0  0  0  0  0  0  0  0  0
   -5.9367    3.4488    3.2497 C   0  0  0  0  0  0  0  0  0  0  0  0
   -6.7512    2.6691    2.7966 O   0  0  0  0  0  0  0  0  0  0  0  0
    1.2038    0.7966    2.0178 C   0  0  0  0  0  0  0  0  0  0  0  0
    0.8125    1.5234    1.1175 O   0  0  0  0  0  0  0  0  0  0  0  0
    1.3187   -0.7003    1.8252 C   0  0  0  0  0  0  0  0  0  0  0  0
    1.3547   -1.1783    0.7022 O   0  0  0  0  0  0  0  0  0  0  0  0
    1.4310   -1.5953    3.0484 C   0  0  0  0  0  0  0  0  0  0  0  0
    1.7533   -2.7683    2.9663 O   0  0  0  0  0  0  0  0  0  0  0  0
  1  2  1  0  0  0  0
  2  3  2  0  0  0  0
  3  4  1  0  0  0  0
  3 50  1  0  0  0  0
  4  5  1  0  0  0  0
  5  6  1  6  0  0  0
  5 46  1  0  0  0  0
  6  7  1  0  0  0  0
  7  8  2  0  0  0  0
  7 12  1  0  0  0  0
  8  9  1  0  0  0  0
  8 25  1  0  0  0  0
  9 10  1  0  0  0  0
 10 11  2  0  0  0  0
 10 21  1  0  0  0  0
 11 12  1  0  0  0  0
 11 13  1  0  0  0  0
 13 14  2  0  0  0  0
 13 19  1  0  0  0  0
 14 15  1  0  0  0  0
 15 16  2  0  0  0  0
 15 17  1  0  0  0  0
 17 18  2  0  0  0  0
 18 19  1  0  0  0  0
 19 20  2  0  0  0  0
 20 21  1  0  0  0  0
 20 22  1  0  0  0  0
 22 23  1  0  0  0  0
 22 24  1  0  0  0  0
 23 24  1  0  0  0  0
 25 26  2  0  0  0  0
 25 30  1  0  0  0  0
 26 27  1  0  0  0  0
 27 28  2  0  0  0  0
 28 29  1  0  0  0  0
 29 30  2  0  0  0  0
 29 34  1  0  0  0  0
 30 31  1  0  0  0  0
 31 32  2  0  0  0  0
 32 33  1  0  0  0  0
 32 39  1  0  0  0  0
 33 34  2  0  0  0  0
 33 35  1  0  0  0  0
 36 35  1  6  0  0  0
 36 37  1  0  0  0  0
 36 41  1  0  0  0  0
 37 38  2  0  0  0  0
 37 39  1  0  0  0  0
 39 40  2  0  0  0  0
 41 42  1  6  0  0  0
 41 43  1  0  0  0  0
 41 44  1  0  0  0  0
 43 44  1  0  0  0  0
 44 45  2  0  0  0  0
 46 47  2  0  0  0  0
 46 48  1  0  0  0  0
 48 49  2  0  0  0  0
 48 50  1  0  0  0  0
 50 51  2  0  0  0  0
M  END
$$$$