
 OpenBabel09222023013D

 52 60  0  0  1  0  0  0  0  0999 V2000
    7.7569    5.6535   -0.6953 O   0  0  0  0  0  0  0  0  0  0  0  0
    7.9043    4.2949   -0.8204 C   0  0  0  0  0  0  0  0  0  0  0  0
    6.8805    3.4346   -0.7535 C   0  0  0  0  0  0  0  0  0  0  0  0
    5.5864    3.8429   -0.5043 O   0  0  0  0  0  0  0  0  0  0  0  0
    4.6895    3.3853   -1.5267 C   0  0  2  0  0  0  0  0  0  0  0  0
    3.4099    4.0337   -1.4693 O   0  0  0  0  0  0  0  0  0  0  0  0
    3.3939    5.4106   -1.6780 C   0  0  0  0  0  0  0  0  0  0  0  0
    2.3184    6.0473   -2.1845 C   0  0  0  0  0  0  0  0  0  0  0  0
    2.2490    7.4286   -2.3515 O   0  0  0  0  0  0  0  0  0  0  0  0
    3.2188    8.2255   -1.7835 C   0  0  0  0  0  0  0  0  0  0  0  0
    4.3531    7.6956   -1.2092 C   0  0  0  0  0  0  0  0  0  0  0  0
    4.5696    6.2236   -1.2179 C   0  0  0  0  0  0  0  0  0  0  0  0
    5.2540    8.5808   -0.6173 C   0  0  0  0  0  0  0  0  0  0  0  0
    6.4181    8.1072    0.0037 N   0  0  0  0  0  0  0  0  0  0  0  0
    7.2561    8.8655    0.7559 C   0  0  0  0  0  0  0  0  0  0  0  0
    8.2276    8.3761    1.3232 O   0  0  0  0  0  0  0  0  0  0  0  0
    6.9516   10.1811    0.8712 N   0  0  0  0  0  0  0  0  0  0  0  0
    6.0122   10.8656    0.0142 C   0  0  0  0  0  0  0  0  0  0  0  0
    5.0041    9.9512   -0.6134 C   0  0  0  0  0  0  0  0  0  0  0  0
    3.8489   10.4182   -1.2551 C   0  0  0  0  0  0  0  0  0  0  0  0
    2.9649    9.5491   -1.8221 N   0  0  0  0  0  0  0  0  0  0  0  0
    3.5069   11.8856   -1.3304 C   0  0  0  0  0  0  0  0  0  0  0  0
    4.4196   12.7575   -2.0146 O   0  0  0  0  0  0  0  0  0  0  0  0
    3.1547   12.4213   -2.6164 O   0  0  0  0  0  0  0  0  0  0  0  0
    1.0633    5.3751   -2.5705 C   0  0  0  0  0  0  0  0  0  0  0  0
    0.1420    5.3424   -1.5711 N   0  0  0  0  0  0  0  0  0  0  0  0
   -1.0862    4.8810   -1.8690 C   0  0  0  0  0  0  0  0  0  0  0  0
   -1.4643    4.4678   -3.1319 C   0  0  0  0  0  0  0  0  0  0  0  0
   -0.5215    4.4966   -4.1621 C   0  0  0  0  0  0  0  0  0  0  0  0
    0.7972    4.9364   -3.8919 C   0  0  0  0  0  0  0  0  0  0  0  0
    1.7320    4.9149   -4.9567 C   0  0  0  0  0  0  0  0  0  0  0  0
    1.3497    4.4969   -6.2393 C   0  0  0  0  0  0  0  0  0  0  0  0
    0.0333    4.1357   -6.5071 C   0  0  0  0  0  0  0  0  0  0  0  0
   -0.8892    4.1111   -5.4636 C   0  0  0  0  0  0  0  0  0  0  0  0
   -0.4508    3.7926   -7.7402 O   0  0  0  0  0  0  0  0  0  0  0  0
    0.3464    4.1497   -8.8777 C   0  0  1  0  0  0  0  0  0  0  0  0
    1.8226    3.8625   -8.6322 C   0  0  0  0  0  0  0  0  0  0  0  0
    2.5191    3.1624   -9.3573 O   0  0  0  0  0  0  0  0  0  0  0  0
    2.3382    4.4108   -7.3238 C   0  0  0  0  0  0  0  0  0  0  0  0
    3.5126    4.7069   -7.1780 O   0  0  0  0  0  0  0  0  0  0  0  0
   -0.0983    3.3262   -9.9708 O   0  0  0  0  0  0  0  0  0  0  0  0
    0.1379    5.5966   -9.2475 C   0  0  1  0  0  0  0  0  0  0  0  0
    0.4709    6.5972   -8.2493 O   0  0  0  0  0  0  0  0  0  0  0  0
    0.4967    5.9414  -10.5885 O   0  0  0  0  0  0  0  0  0  0  0  0
   -0.8135    6.0270  -10.2689 C   0  0  0  0  0  0  0  0  0  0  0  0
   -1.5423    6.9940  -10.2849 O   0  0  0  0  0  0  0  0  0  0  0  0
    4.5399    1.8713   -1.3868 C   0  0  0  0  0  0  0  0  0  0  0  0
    3.5515    1.2156   -1.6824 O   0  0  0  0  0  0  0  0  0  0  0  0
    5.8224    1.1912   -0.9383 C   0  0  0  0  0  0  0  0  0  0  0  0
    5.8228    0.0379   -0.5408 O   0  0  0  0  0  0  0  0  0  0  0  0
    7.1140    1.9878   -0.9822 C   0  0  0  0  0  0  0  0  0  0  0  0
    8.1895    1.4914   -1.2606 O   0  0  0  0  0  0  0  0  0  0  0  0
  1  2  1  0  0  0  0
  2  3  2  0  0  0  0
  3  4  1  0  0  0  0
  3 51  1  0  0  0  0
  4  5  1  0  0  0  0
  5  6  1  1  0  0  0
  5 47  1  0  0  0  0
  6  7  1  0  0  0  0
  7  8  2  0  0  0  0
  7 12  1  0  0  0  0
  8  9  1  0  0  0  0
  8 25  1  0  0  0  0
  9 10  1  0  0  0  0
 10 11  2  0  0  0  0
 10 21  1  0  0  0  0
 11 12  1  0  0  0  0
 11 13  1  0  0  0  0
 13 14  1  0  0  0  0
 13 19  2  0  0  0  0
 14 15  1  0  0  0  0
 15 16  2  0  0  0  0
 15 17  1  0  0  0  0
 17 18  1  0  0  0  0
 18 19  1  0  0  0  0
 19 20  1  0  0  0  0
 20 21  2  0  0  0  0
 20 22  1  0  0  0  0
 22 23  1  0  0  0  0
 22 24  1  0  0  0  0
 23 24  1  0  0  0  0
 25 26  2  0  0  0  0
 25 30  1  0  0  0  0
 26 27  1  0  0  0  0
 27 28  2  0  0  0  0
 28 29  1  0  0  0  0
 29 30  2  0  0  0  0
 29 34  1  0  0  0  0
 30 31  1  0  0  0  0
 31 32  2  0  0  0  0
 32 33  1  0  0  0  0
 32 39  1  0  0  0  0
 33 34  2  0  0  0  0
 33 35  1  0  0  0  0
 35 36  1  0  0  0  0
 36 37  1  0  0  0  0
 36 42  1  0  0  0  0
 36 41  1  6  0  0  0
 37 38  2  0  0  0  0
 37 39  1  0  0  0  0
 39 40  2  0  0  0  0
 42 43  1  1  0  0  0
 42 44  1  0  0  0  0
 42 45  1  0  0  0  0
 44 45  1  0  0  0  0
 45 46  2  0  0  0  0
 47 48  2  0  0  0  0
 47 49  1  0  0  0  0
 49 50  2  0  0  0  0
 49 51  1  0  0  0  0
 51 52  2  0  0  0  0
M  END
$$$$