
 OpenBabel11152014223D

 53 61  0  0  1  0  0  0  0  0999 V2000
    3.6181    8.2719   -1.0674 O   0  0  0  0  0  0  0  0  0  0  0  0
    2.9633    7.4927   -1.9851 C   0  0  0  0  0  0  0  0  0  0  0  0
    2.5717    6.2384   -1.7286 C   0  0  0  0  0  0  0  0  0  0  0  0
    2.8354    5.6415   -0.5091 O   0  0  0  0  0  0  0  0  0  0  0  0
    1.8561    4.6839   -0.1043 C   0  0  2  0  0  0  0  0  0  0  0  0
    2.1165    4.1838    1.2102 O   0  0  0  0  0  0  0  0  0  0  0  0
    2.1095    5.1215    2.2361 C   0  0  0  0  0  0  0  0  0  0  0  0
    2.9104    4.9732    3.3100 C   0  0  0  0  0  0  0  0  0  0  0  0
    2.9305    5.8565    4.3803 O   0  0  0  0  0  0  0  0  0  0  0  0
    2.0210    6.8993    4.4050 C   0  0  0  0  0  0  0  0  0  0  0  0
    1.1361    7.1083    3.4156 C   0  0  0  0  0  0  0  0  0  0  0  0
    1.1260    6.2640    2.1804 C   0  0  0  0  0  0  0  0  0  0  0  0
    0.1314    8.2319    3.5128 C   0  0  3  0  0  0  0  0  0  0  0  0
   -1.1658    7.6445    3.4088 O   0  0  0  0  0  0  0  0  0  0  0  0
   -2.2840    8.2830    3.8288 C   0  0  0  0  0  0  0  0  0  0  0  0
   -3.3959    7.8194    3.6124 O   0  0  0  0  0  0  0  0  0  0  0  0
   -2.1301    9.4472    4.5031 O   0  0  0  0  0  0  0  0  0  0  0  0
   -0.8704   10.0128    4.8301 C   0  0  3  0  0  0  0  0  0  0  0  0
    0.2132    9.0134    4.7797 C   0  0  0  0  0  0  0  0  0  0  0  0
    1.1627    8.7723    5.7127 C   0  0  0  0  0  0  0  0  0  0  0  0
    2.0482    7.7286    5.4944 N   0  0  0  0  0  0  0  0  0  0  0  0
    1.3498    9.5315    6.9741 C   0  0  0  0  0  0  0  0  0  0  0  0
    1.1461    8.9237    8.2586 O   0  0  0  0  0  0  0  0  0  0  0  0
    2.4749    9.2930    7.8423 O   0  0  0  0  0  0  0  0  0  0  0  0
   -0.5708   11.0449    3.9071 O   0  0  0  0  0  0  0  0  0  0  0  0
    3.8349    3.8397    3.4488 C   0  0  0  0  0  0  0  0  0  0  0  0
    5.0653    4.0620    2.9399 N   0  0  0  0  0  0  0  0  0  0  0  0
    5.8961    3.0323    3.0296 C   0  0  0  0  0  0  0  0  0  0  0  0
    7.1371    3.2631    2.5300 O   0  0  0  0  0  0  0  0  0  0  0  0
    5.6595    1.8360    3.5635 N   0  0  0  0  0  0  0  0  0  0  0  0
    4.4447    1.6459    4.0811 C   0  0  0  0  0  0  0  0  0  0  0  0
    3.4487    2.6333    4.0628 C   0  0  0  0  0  0  0  0  0  0  0  0
    2.1848    2.3600    4.6500 C   0  0  0  0  0  0  0  0  0  0  0  0
    1.9487    1.1328    5.2746 C   0  0  0  0  0  0  0  0  0  0  0  0
    2.9506    0.1736    5.3239 C   0  0  0  0  0  0  0  0  0  0  0  0
    4.1694    0.4266    4.6906 C   0  0  0  0  0  0  0  0  0  0  0  0
    2.8467   -1.0273    5.9689 O   0  0  0  0  0  0  0  0  0  0  0  0
    1.7981   -1.1423    6.9478 C   0  0  2  0  0  0  0  0  0  0  0  0
    0.4942   -0.5386    6.4813 C   0  0  0  0  0  0  0  0  0  0  0  0
   -0.5937   -1.0906    6.5420 O   0  0  0  0  0  0  0  0  0  0  0  0
    0.6490    0.8466    5.8968 C   0  0  0  0  0  0  0  0  0  0  0  0
   -0.2418    1.6759    5.9603 O   0  0  0  0  0  0  0  0  0  0  0  0
    2.2725   -0.6597    8.2952 C   0  0  1  0  0  0  0  0  0  0  0  0
    3.3984   -1.3677    8.8594 O   0  0  0  0  0  0  0  0  0  0  0  0
    2.3299    0.7604    8.4818 O   0  0  0  0  0  0  0  0  0  0  0  0
    1.4412    0.0810    9.2251 C   0  0  0  0  0  0  0  0  0  0  0  0
    0.2397    0.2227    9.3437 O   0  0  0  0  0  0  0  0  0  0  0  0
    1.8372    3.5336   -1.0971 C   0  0  0  0  0  0  0  0  0  0  0  0
    1.8938    2.3412   -0.8387 O   0  0  0  0  0  0  0  0  0  0  0  0
    1.6690    4.0214   -2.5156 C   0  0  0  0  0  0  0  0  0  0  0  0
    1.3398    3.2512   -3.4036 O   0  0  0  0  0  0  0  0  0  0  0  0
    1.8771    5.4925   -2.8148 C   0  0  0  0  0  0  0  0  0  0  0  0
    1.4690    6.0059   -3.8433 O   0  0  0  0  0  0  0  0  0  0  0  0
  1  2  1  0  0  0  0
  2  3  2  0  0  0  0
  3  4  1  0  0  0  0
  3 52  1  0  0  0  0
  4  5  1  0  0  0  0
  5  6  1  1  0  0  0
  5 48  1  0  0  0  0
  6  7  1  0  0  0  0
  7  8  2  0  0  0  0
  7 12  1  0  0  0  0
  8  9  1  0  0  0  0
  8 26  1  0  0  0  0
  9 10  1  0  0  0  0
 10 11  2  0  0  0  0
 10 21  1  0  0  0  0
 11 12  1  0  0  0  0
 11 13  1  0  0  0  0
 13 14  1  0  0  0  0
 13 19  1  0  0  0  0
 14 15  1  0  0  0  0
 15 16  2  0  0  0  0
 15 17  1  0  0  0  0
 17 18  1  0  0  0  0
 18 19  1  0  0  0  0
 18 25  1  0  0  0  0
 19 20  2  0  0  0  0
 20 21  1  0  0  0  0
 20 22  1  0  0  0  0
 22 23  1  0  0  0  0
 22 24  1  0  0  0  0
 23 24  1  0  0  0  0
 26 27  2  0  0  0  0
 26 32  1  0  0  0  0
 27 28  1  0  0  0  0
 28 29  1  0  0  0  0
 28 30  2  0  0  0  0
 30 31  1  0  0  0  0
 31 32  2  0  0  0  0
 31 36  1  0  0  0  0
 32 33  1  0  0  0  0
 33 34  2  0  0  0  0
 34 35  1  0  0  0  0
 34 41  1  0  0  0  0
 35 36  2  0  0  0  0
 35 37  1  0  0  0  0
 38 37  1  6  0  0  0
 38 39  1  0  0  0  0
 38 43  1  0  0  0  0
 39 40  2  0  0  0  0
 39 41  1  0  0  0  0
 41 42  2  0  0  0  0
 43 44  1  1  0  0  0
 43 45  1  0  0  0  0
 43 46  1  0  0  0  0
 45 46  1  0  0  0  0
 46 47  2  0  0  0  0
 48 49  2  0  0  0  0
 48 50  1  0  0  0  0
 50 51  2  0  0  0  0
 50 52  1  0  0  0  0
 52 53  2  0  0  0  0
M  END
$$$$