
 OpenBabel11262012183D

 54 62  0  0  1  0  0  0  0  0999 V2000
    2.2196    1.9065   -3.9442 F   0  0  0  0  0  0  0  0  0  0  0  0
    2.2921    1.3558   -2.7171 C   0  0  0  0  0  0  0  0  0  0  0  0
    2.0507    0.0573   -2.5209 C   0  0  0  0  0  0  0  0  0  0  0  0
    1.6574   -0.7611   -3.5621 O   0  0  0  0  0  0  0  0  0  0  0  0
    2.0944   -2.1087   -3.4779 C   0  0  2  0  0  0  0  0  0  0  0  0
    1.5763   -2.9388   -4.5608 O   0  0  0  0  0  0  0  0  0  0  0  0
    1.8799   -2.6492   -5.8815 C   0  0  0  0  0  0  0  0  0  0  0  0
    1.8599   -3.6075   -6.8479 C   0  0  0  0  0  0  0  0  0  0  0  0
    2.1497   -3.2776   -8.1810 O   0  0  0  0  0  0  0  0  0  0  0  0
    2.3533   -1.9560   -8.5781 C   0  0  0  0  0  0  0  0  0  0  0  0
    2.3563   -0.9497   -7.6871 C   0  0  0  0  0  0  0  0  0  0  0  0
    2.1332   -1.1949   -6.2300 C   0  0  0  0  0  0  0  0  0  0  0  0
    2.5648    0.4889   -8.0978 C   0  0  3  0  0  0  0  0  0  0  0  0
    3.7590    0.9589   -7.4830 O   0  0  0  0  0  0  0  0  0  0  0  0
    4.1461    2.2103   -7.8184 C   0  0  0  0  0  0  0  0  0  0  0  0
    5.0386    2.8193   -7.1386 N   0  0  0  0  0  0  0  0  0  0  0  0
    3.5694    2.7951   -8.8825 O   0  0  0  0  0  0  0  0  0  0  0  0
    2.9796    2.0377   -9.9306 C   0  0  3  0  0  0  0  0  0  0  0  0
    2.7676    0.6135   -9.5611 C   0  0  0  0  0  0  0  0  0  0  0  0
    2.7652   -0.4420  -10.4030 C   0  0  0  0  0  0  0  0  0  0  0  0
    2.5595   -1.7233   -9.9197 O   0  3  0  0  0  0  0  0  0  0  0  0
    2.9925   -0.3319  -11.8616 C   0  0  0  0  0  0  0  0  0  0  0  0
    4.3136   -0.4332  -12.4074 O   0  0  0  0  0  0  0  0  0  0  0  0
    3.3625   -1.4926  -12.6264 O   0  0  0  0  0  0  0  0  0  0  0  0
    1.6817    2.5351  -10.1902 O   0  0  0  0  0  0  0  0  0  0  0  0
    1.5644   -5.0864   -6.6362 C   0  0  0  0  0  0  0  0  0  0  0  0
    1.9000   -5.6794   -5.4149 C   0  0  0  0  0  0  0  0  0  0  0  0
    1.6673   -6.9732   -5.1667 N   0  3  0  0  0  0  0  0  0  0  0  0
    2.0231   -7.4876   -3.9736 F   0  0  0  0  0  0  0  0  0  0  0  0
    1.1400   -7.7831   -6.0535 N   0  0  0  0  0  0  0  0  0  0  0  0
    0.8154   -7.3240   -7.2559 C   0  0  0  0  0  0  0  0  0  0  0  0
    1.0010   -5.9667   -7.6209 C   0  0  0  0  0  0  0  0  0  0  0  0
    0.5966   -5.6173   -8.9375 C   0  0  0  0  0  0  0  0  0  0  0  0
    0.0272   -6.5549   -9.8155 C   0  0  0  0  0  0  0  0  0  0  0  0
   -0.4444   -6.1403  -11.1325 C   0  0  0  0  0  0  0  0  0  0  0  0
   -0.0116   -5.1088  -11.6261 O   0  0  0  0  0  0  0  0  0  0  0  0
   -1.5154   -7.0039  -11.7739 C   0  0  0  0  0  0  0  0  0  0  0  0
   -2.1123   -6.5836  -12.7535 O   0  0  0  0  0  0  0  0  0  0  0  0
   -1.8146   -8.3120  -11.0520 C   0  0  1  0  0  0  0  0  0  0  0  0
   -0.7301   -8.8012  -10.2380 O   0  0  0  0  0  0  0  0  0  0  0  0
   -0.1382   -7.8671   -9.4398 C   0  0  0  0  0  0  0  0  0  0  0  0
    0.2821   -8.2381   -8.1682 C   0  0  0  0  0  0  0  0  0  0  0  0
    0.1120   -9.5131   -7.7825 F   0  0  0  0  0  0  0  0  0  0  0  0
   -3.1302   -8.2718  -10.2982 C   0  0  1  0  0  0  0  0  0  0  0  0
   -4.3092   -8.0533  -11.0929 O   0  0  0  0  0  0  0  0  0  0  0  0
   -3.2811   -9.2587   -9.2619 O   0  0  0  0  0  0  0  0  0  0  0  0
   -3.2679   -7.9755   -8.8852 C   0  0  0  0  0  0  0  0  0  0  0  0
   -2.5619   -7.3562   -8.1001 O   0  0  0  0  0  0  0  0  0  0  0  0
    1.5990   -2.7746   -2.2064 C   0  0  0  0  0  0  0  0  0  0  0  0
    1.1842   -3.9266   -2.1534 O   0  0  0  0  0  0  0  0  0  0  0  0
    1.7501   -1.9070   -0.9770 C   0  0  0  0  0  0  0  0  0  0  0  0
    1.5729   -2.3918    0.1272 O   0  0  0  0  0  0  0  0  0  0  0  0
    2.1659   -0.4578   -1.1329 C   0  0  0  0  0  0  0  0  0  0  0  0
    2.6061    0.1929   -0.2031 O   0  0  0  0  0  0  0  0  0  0  0  0
  1  2  1  0  0  0  0
  2  3  2  0  0  0  0
  3  4  1  0  0  0  0
  3 53  1  0  0  0  0
  4  5  1  0  0  0  0
  5  6  1  6  0  0  0
  5 49  1  0  0  0  0
  6  7  1  0  0  0  0
  7  8  2  0  0  0  0
  7 12  1  0  0  0  0
  8  9  1  0  0  0  0
  8 26  1  0  0  0  0
  9 10  1  0  0  0  0
 10 11  2  0  0  0  0
 10 21  1  0  0  0  0
 11 12  1  0  0  0  0
 11 13  1  0  0  0  0
 13 14  1  0  0  0  0
 13 19  1  0  0  0  0
 14 15  1  0  0  0  0
 15 16  2  0  0  0  0
 15 17  1  0  0  0  0
 17 18  1  0  0  0  0
 18 19  1  0  0  0  0
 18 25  1  0  0  0  0
 19 20  2  0  0  0  0
 20 21  1  0  0  0  0
 20 22  1  0  0  0  0
 22 23  1  0  0  0  0
 22 24  1  0  0  0  0
 23 24  1  0  0  0  0
 26 27  2  0  0  0  0
 26 32  1  0  0  0  0
 27 28  1  0  0  0  0
 28 29  1  0  0  0  0
 28 30  2  0  0  0  0
 30 31  1  0  0  0  0
 31 32  2  0  0  0  0
 31 42  1  0  0  0  0
 32 33  1  0  0  0  0
 33 34  2  0  0  0  0
 34 35  1  0  0  0  0
 34 41  1  0  0  0  0
 35 36  2  0  0  0  0
 35 37  1  0  0  0  0
 37 38  2  0  0  0  0
 39 37  1  1  0  0  0
 39 40  1  0  0  0  0
 39 44  1  0  0  0  0
 40 41  1  0  0  0  0
 41 42  2  0  0  0  0
 42 43  1  0  0  0  0
 44 45  1  6  0  0  0
 44 46  1  0  0  0  0
 44 47  1  0  0  0  0
 46 47  1  0  0  0  0
 47 48  2  0  0  0  0
 49 50  2  0  0  0  0
 49 51  1  0  0  0  0
 51 52  2  0  0  0  0
 51 53  1  0  0  0  0
 53 54  2  0  0  0  0
M  CHG  2  21   1  28   1
M  END
$$$$