
 OpenBabel11232003073D

 54 62  0  0  1  0  0  0  0  0999 V2000
    4.3968    0.6693    8.0456 O   0  0  0  0  0  0  0  0  0  0  0  0
    3.9149    1.6679    7.2320 C   0  0  0  0  0  0  0  0  0  0  0  0
    3.4931    1.4583    5.9790 C   0  0  0  0  0  0  0  0  0  0  0  0
    3.5944    0.2137    5.3992 O   0  0  0  0  0  0  0  0  0  0  0  0
    2.4810   -0.1738    4.6164 C   0  0  2  0  0  0  0  0  0  0  0  0
    2.6383   -1.5155    4.0945 O   0  0  0  0  0  0  0  0  0  0  0  0
    2.6952   -2.5694    5.0011 C   0  0  0  0  0  0  0  0  0  0  0  0
    2.3108   -3.8251    4.6613 C   0  0  0  0  0  0  0  0  0  0  0  0
    2.4787   -4.9109    5.5487 O   0  0  0  0  0  0  0  0  0  0  0  0
    3.0466   -4.7035    6.8231 C   0  0  0  0  0  0  0  0  0  0  0  0
    3.3480   -3.4617    7.2447 C   0  0  0  0  0  0  0  0  0  0  0  0
    3.2106   -2.2667    6.3760 C   0  0  0  0  0  0  0  0  0  0  0  0
    3.8802   -3.1589    8.6152 C   0  0  3  0  0  0  0  0  0  0  0  0
    2.9267   -2.3683    9.2918 O   0  0  0  0  0  0  0  0  0  0  0  0
    3.2081   -2.0517   10.5883 C   0  0  0  0  0  0  0  0  0  0  0  0
    2.6619   -1.1038   11.1278 O   0  0  0  0  0  0  0  0  0  0  0  0
    4.1139   -2.8411   11.2286 O   0  0  0  0  0  0  0  0  0  0  0  0
    4.4761   -4.0453   10.7504 C   0  0  0  0  0  0  0  0  0  0  0  0
    5.2020   -4.8233   11.3504 O   0  0  0  0  0  0  0  0  0  0  0  0
    4.0251   -4.3786    9.4033 C   0  0  0  0  0  0  0  0  0  0  0  0
    3.7712   -5.6232    8.9445 C   0  0  0  0  0  0  0  0  0  0  0  0
    3.2809   -5.7963    7.6439 O   0  3  0  0  0  0  0  0  0  0  0  0
    3.9102   -6.8379    9.7700 C   0  0  3  0  0  0  0  0  0  0  0  0
    3.0936   -7.9489    9.4141 N   0  0  0  0  0  0  0  0  0  0  0  0
    2.7442   -7.3092   10.4221 N   0  0  0  0  0  0  0  0  0  0  0  0
    1.6094   -4.1121    3.3552 C   0  0  0  0  0  0  0  0  0  0  0  0
    0.7459   -3.1232    2.8635 C   0  0  0  0  0  0  0  0  0  0  0  0
    0.1089   -3.2461    1.6991 N   0  3  0  0  0  0  0  0  0  0  0  0
   -0.6769   -2.2382    1.2731 F   0  0  0  0  0  0  0  0  0  0  0  0
    0.2077   -4.3216    0.9576 N   0  0  0  0  0  0  0  0  0  0  0  0
    0.9657   -5.3361    1.3689 C   0  0  0  0  0  0  0  0  0  0  0  0
    1.6990   -5.2997    2.5803 C   0  0  0  0  0  0  0  0  0  0  0  0
    2.4508   -6.4557    2.9087 C   0  0  0  0  0  0  0  0  0  0  0  0
    2.4516   -7.5956    2.0804 C   0  0  0  0  0  0  0  0  0  0  0  0
    3.1877   -8.7937    2.4808 C   0  0  0  0  0  0  0  0  0  0  0  0
    3.6574   -8.8596    3.6082 O   0  0  0  0  0  0  0  0  0  0  0  0
    3.3040   -9.9188    1.4736 C   0  0  0  0  0  0  0  0  0  0  0  0
    3.8240  -10.9734    1.8061 O   0  0  0  0  0  0  0  0  0  0  0  0
    2.7960   -9.5969    0.0803 C   0  0  1  0  0  0  0  0  0  0  0  0
    1.7009   -8.6648    0.0367 O   0  0  0  0  0  0  0  0  0  0  0  0
    1.7369   -7.6109    0.9014 C   0  0  0  0  0  0  0  0  0  0  0  0
    1.0082   -6.4728    0.5643 C   0  0  0  0  0  0  0  0  0  0  0  0
    0.3202   -6.4649   -0.5891 F   0  0  0  0  0  0  0  0  0  0  0  0
    3.9276   -9.2010   -0.8379 C   0  0  1  0  0  0  0  0  0  0  0  0
    4.9756  -10.1647   -1.0278 O   0  0  0  0  0  0  0  0  0  0  0  0
    3.5697   -8.4679   -2.0157 O   0  0  0  0  0  0  0  0  0  0  0  0
    4.2787   -7.8008   -1.0821 C   0  0  0  0  0  0  0  0  0  0  0  0
    4.0341   -6.7970   -0.4587 O   0  0  0  0  0  0  0  0  0  0  0  0
    2.3181    0.7802    3.4536 C   0  0  0  0  0  0  0  0  0  0  0  0
    2.1433    0.4408    2.2920 O   0  0  0  0  0  0  0  0  0  0  0  0
    2.2642    2.2172    3.9113 C   0  0  0  0  0  0  0  0  0  0  0  0
    1.5372    2.9972    3.3201 O   0  0  0  0  0  0  0  0  0  0  0  0
    2.9722    2.6143    5.1960 C   0  0  0  0  0  0  0  0  0  0  0  0
    3.0594    3.7724    5.5592 O   0  0  0  0  0  0  0  0  0  0  0  0
  1  2  1  0  0  0  0
  2  3  2  0  0  0  0
  3  4  1  0  0  0  0
  3 53  1  0  0  0  0
  4  5  1  0  0  0  0
  5  6  1  6  0  0  0
  5 49  1  0  0  0  0
  6  7  1  0  0  0  0
  7  8  2  0  0  0  0
  7 12  1  0  0  0  0
  8  9  1  0  0  0  0
  8 26  1  0  0  0  0
  9 10  1  0  0  0  0
 10 11  2  0  0  0  0
 10 22  1  0  0  0  0
 11 12  1  0  0  0  0
 11 13  1  0  0  0  0
 13 14  1  0  0  0  0
 13 20  1  0  0  0  0
 14 15  1  0  0  0  0
 15 16  2  0  0  0  0
 15 17  1  0  0  0  0
 17 18  1  0  0  0  0
 18 19  2  0  0  0  0
 18 20  1  0  0  0  0
 20 21  2  0  0  0  0
 21 22  1  0  0  0  0
 21 23  1  0  0  0  0
 23 24  1  0  0  0  0
 23 25  1  0  0  0  0
 24 25  2  0  0  0  0
 26 27  2  0  0  0  0
 26 32  1  0  0  0  0
 27 28  1  0  0  0  0
 28 29  1  0  0  0  0
 28 30  2  0  0  0  0
 30 31  1  0  0  0  0
 31 32  2  0  0  0  0
 31 42  1  0  0  0  0
 32 33  1  0  0  0  0
 33 34  2  0  0  0  0
 34 35  1  0  0  0  0
 34 41  1  0  0  0  0
 35 36  2  0  0  0  0
 35 37  1  0  0  0  0
 37 38  2  0  0  0  0
 39 37  1  1  0  0  0
 39 40  1  0  0  0  0
 39 44  1  0  0  0  0
 40 41  1  0  0  0  0
 41 42  2  0  0  0  0
 42 43  1  0  0  0  0
 44 45  1  6  0  0  0
 44 46  1  0  0  0  0
 44 47  1  0  0  0  0
 46 47  1  0  0  0  0
 47 48  2  0  0  0  0
 49 50  2  0  0  0  0
 49 51  1  0  0  0  0
 51 52  2  0  0  0  0
 51 53  1  0  0  0  0
 53 54  2  0  0  0  0
M  CHG  2  22   1  28   1
M  END
$$$$