
 OpenBabel11172022463D

 53 61  0  0  1  0  0  0  0  0999 V2000
    2.8548    3.2901   -4.4528 O   0  0  0  0  0  0  0  0  0  0  0  0
    3.0439    2.8396   -3.1711 C   0  0  0  0  0  0  0  0  0  0  0  0
    2.6665    1.6215   -2.7627 C   0  0  0  0  0  0  0  0  0  0  0  0
    2.0051    0.7438   -3.6006 O   0  0  0  0  0  0  0  0  0  0  0  0
    2.5302   -0.5875   -3.5509 C   0  0  2  0  0  0  0  0  0  0  0  0
    1.9750   -1.4460   -4.5707 O   0  0  0  0  0  0  0  0  0  0  0  0
    2.1845   -1.1119   -5.9062 C   0  0  0  0  0  0  0  0  0  0  0  0
    2.2264   -2.0506   -6.8788 C   0  0  0  0  0  0  0  0  0  0  0  0
    2.3702   -1.7444   -8.2330 O   0  0  0  0  0  0  0  0  0  0  0  0
    2.4924   -0.4124   -8.6353 C   0  0  0  0  0  0  0  0  0  0  0  0
    2.4736    0.5839   -7.7364 C   0  0  0  0  0  0  0  0  0  0  0  0
    2.2743    0.3428   -6.2802 C   0  0  0  0  0  0  0  0  0  0  0  0
    2.6312    2.0174   -8.1503 C   0  0  3  0  0  0  0  0  0  0  0  0
    3.7914    2.5126   -7.4886 O   0  0  0  0  0  0  0  0  0  0  0  0
    4.2876    3.7313   -7.7994 C   0  0  0  0  0  0  0  0  0  0  0  0
    5.0730    4.3016   -7.0526 O   0  0  0  0  0  0  0  0  0  0  0  0
    3.9114    4.2708   -8.9830 O   0  0  0  0  0  0  0  0  0  0  0  0
    3.0007    3.6524   -9.8863 C   0  0  3  0  0  0  0  0  0  0  0  0
    2.8193    2.2106   -9.6071 C   0  0  0  0  0  0  0  0  0  0  0  0
    2.8115    1.1771  -10.4866 C   0  0  0  0  0  0  0  0  0  0  0  0
    2.6458   -0.1353   -9.9950 N   0  0  0  0  0  0  0  0  0  0  0  0
    2.4957   -1.1896  -10.8915 O   0  0  0  0  0  0  0  0  0  0  0  0
    2.9643    1.3828  -11.9546 C   0  0  0  0  0  0  0  0  0  0  0  0
    4.2733    1.4662  -12.5513 O   0  0  0  0  0  0  0  0  0  0  0  0
    3.3967    0.3770  -12.8859 O   0  0  0  0  0  0  0  0  0  0  0  0
    1.7368    4.2809   -9.7474 O   0  0  0  0  0  0  0  0  0  0  0  0
    2.1407   -3.4987   -6.6136 C   0  0  0  0  0  0  0  0  0  0  0  0
    3.3146   -4.1888   -6.3666 C   0  0  0  0  0  0  0  0  0  0  0  0
    3.3296   -5.5059   -6.1198 N   0  0  0  0  0  0  0  0  0  0  0  0
    2.1402   -6.2000   -6.0991 N   0  0  0  0  0  0  0  0  0  0  0  0
    0.9671   -5.6136   -6.3371 C   0  0  0  0  0  0  0  0  0  0  0  0
    0.9293   -4.2346   -6.6208 C   0  0  0  0  0  0  0  0  0  0  0  0
   -0.3284   -3.6719   -6.9221 C   0  0  0  0  0  0  0  0  0  0  0  0
   -1.4667   -4.4745   -6.9226 C   0  0  0  0  0  0  0  0  0  0  0  0
   -1.3379   -5.8032   -6.5877 C   0  0  0  0  0  0  0  0  0  0  0  0
   -0.1460   -6.3645   -6.3160 N   0  0  0  0  0  0  0  0  0  0  0  0
   -2.3767   -6.6892   -6.5346 O   0  0  0  0  0  0  0  0  0  0  0  0
   -3.6886   -6.1380   -6.4247 C   0  0  2  0  0  0  0  0  0  0  0  0
   -3.9357   -4.9071   -7.2634 C   0  0  0  0  0  0  0  0  0  0  0  0
   -4.9879   -4.6573   -7.8337 O   0  0  0  0  0  0  0  0  0  0  0  0
   -2.7716   -3.9461   -7.3130 C   0  0  0  0  0  0  0  0  0  0  0  0
   -2.9124   -2.7940   -7.6901 O   0  0  0  0  0  0  0  0  0  0  0  0
   -4.0455   -5.8876   -4.9938 C   0  0  1  0  0  0  0  0  0  0  0  0
   -3.2054   -4.9528   -4.2749 O   0  0  0  0  0  0  0  0  0  0  0  0
   -5.4499   -5.7573   -4.7580 O   0  0  0  0  0  0  0  0  0  0  0  0
   -4.8358   -6.8020   -4.1663 C   0  0  0  0  0  0  0  0  0  0  0  0
   -4.7451   -7.0723   -2.9932 O   0  0  0  0  0  0  0  0  0  0  0  0
    2.2081   -1.1607   -2.1731 C   0  0  0  0  0  0  0  0  0  0  0  0
    1.8230   -2.2979   -1.9414 O   0  0  0  0  0  0  0  0  0  0  0  0
    2.4565   -0.1807   -1.0408 C   0  0  0  0  0  0  0  0  0  0  0  0
    2.2711   -0.5102    0.1206 O   0  0  0  0  0  0  0  0  0  0  0  0
    2.9388    1.2202   -1.3593 C   0  0  0  0  0  0  0  0  0  0  0  0
    3.5242    1.9115   -0.5440 O   0  0  0  0  0  0  0  0  0  0  0  0
  1  2  1  0  0  0  0
  2  3  2  0  0  0  0
  3  4  1  0  0  0  0
  3 52  1  0  0  0  0
  4  5  1  0  0  0  0
  5  6  1  6  0  0  0
  5 48  1  0  0  0  0
  6  7  1  0  0  0  0
  7  8  2  0  0  0  0
  7 12  1  0  0  0  0
  8  9  1  0  0  0  0
  8 27  1  0  0  0  0
  9 10  1  0  0  0  0
 10 11  2  0  0  0  0
 10 21  1  0  0  0  0
 11 12  1  0  0  0  0
 11 13  1  0  0  0  0
 13 14  1  0  0  0  0
 13 19  1  0  0  0  0
 14 15  1  0  0  0  0
 15 16  2  0  0  0  0
 15 17  1  0  0  0  0
 17 18  1  0  0  0  0
 18 19  1  0  0  0  0
 18 26  1  0  0  0  0
 19 20  2  0  0  0  0
 20 21  1  0  0  0  0
 20 23  1  0  0  0  0
 21 22  1  0  0  0  0
 23 24  1  0  0  0  0
 23 25  1  0  0  0  0
 24 25  1  0  0  0  0
 27 28  2  0  0  0  0
 27 32  1  0  0  0  0
 28 29  1  0  0  0  0
 29 30  2  0  0  0  0
 30 31  1  0  0  0  0
 31 32  2  0  0  0  0
 31 36  1  0  0  0  0
 32 33  1  0  0  0  0
 33 34  2  0  0  0  0
 34 35  1  0  0  0  0
 34 41  1  0  0  0  0
 35 36  2  0  0  0  0
 35 37  1  0  0  0  0
 38 37  1  1  0  0  0
 38 39  1  0  0  0  0
 38 43  1  0  0  0  0
 39 40  2  0  0  0  0
 39 41  1  0  0  0  0
 41 42  2  0  0  0  0
 43 44  1  1  0  0  0
 43 45  1  0  0  0  0
 43 46  1  0  0  0  0
 45 46  1  0  0  0  0
 46 47  2  0  0  0  0
 48 49  2  0  0  0  0
 48 50  1  0  0  0  0
 50 51  2  0  0  0  0
 50 52  1  0  0  0  0
 52 53  2  0  0  0  0
M  END
$$$$