
 OpenBabel11142002013D

 52 60  0  0  1  0  0  0  0  0999 V2000
    6.8553   -4.3815   -5.5577 O   0  0  0  0  0  0  0  0  0  0  0  0
    6.7425   -4.8337   -4.2675 C   0  0  0  0  0  0  0  0  0  0  0  0
    5.8085   -4.4200   -3.4030 C   0  0  0  0  0  0  0  0  0  0  0  0
    4.8660   -3.4785   -3.7807 O   0  0  0  0  0  0  0  0  0  0  0  0
    3.5733   -3.7083   -3.2060 C   0  0  2  0  0  0  0  0  0  0  0  0
    2.5996   -2.7938   -3.7442 O   0  0  0  0  0  0  0  0  0  0  0  0
    2.3783   -2.8708   -5.1167 C   0  0  0  0  0  0  0  0  0  0  0  0
    2.0143   -1.7892   -5.8422 C   0  0  0  0  0  0  0  0  0  0  0  0
    1.8325   -1.8243   -7.2271 O   0  0  0  0  0  0  0  0  0  0  0  0
    1.9812   -3.0269   -7.9044 C   0  0  0  0  0  0  0  0  0  0  0  0
    2.2465   -4.1645   -7.2498 C   0  0  0  0  0  0  0  0  0  0  0  0
    2.4869   -4.2203   -5.7852 C   0  0  0  0  0  0  0  0  0  0  0  0
    2.3220   -5.4280   -8.0276 C   0  0  0  0  0  0  0  0  0  0  0  0
    2.5068   -6.5494   -7.4102 N   0  0  0  0  0  0  0  0  0  0  0  0
    2.5490   -7.7225   -8.1343 C   0  0  0  0  0  0  0  0  0  0  0  0
    2.6516   -8.7748   -7.5182 O   0  0  0  0  0  0  0  0  0  0  0  0
    2.4851   -7.7677   -9.5105 N   0  0  0  0  0  0  0  0  0  0  0  0
    2.3100   -6.6590  -10.1213 C   0  0  0  0  0  0  0  0  0  0  0  0
    2.1795   -5.3482   -9.5003 C   0  0  0  0  0  0  0  0  0  0  0  0
    1.9621   -4.1436  -10.0726 C   0  0  0  0  0  0  0  0  0  0  0  0
    1.8500   -3.0121   -9.2685 N   0  0  0  0  0  0  0  0  0  0  0  0
    1.8200   -3.9109  -11.5312 C   0  0  0  0  0  0  0  0  0  0  0  0
    0.5421   -3.9721  -12.1830 O   0  0  0  0  0  0  0  0  0  0  0  0
    1.2215   -2.7089  -12.0529 O   0  0  0  0  0  0  0  0  0  0  0  0
    2.2503   -6.6927  -11.4552 O   0  0  0  0  0  0  0  0  0  0  0  0
    1.7759   -0.4554   -5.2641 C   0  0  0  0  0  0  0  0  0  0  0  0
    2.8709    0.3305   -5.2075 N   0  0  0  0  0  0  0  0  0  0  0  0
    2.7516    1.5524   -4.7728 N   0  0  0  0  0  0  0  0  0  0  0  0
    1.5962    2.0530   -4.3992 N   0  0  0  0  0  0  0  0  0  0  0  0
    0.4845    1.3128   -4.4471 C   0  0  0  0  0  0  0  0  0  0  0  0
    0.5072   -0.0072   -4.8858 C   0  0  0  0  0  0  0  0  0  0  0  0
   -0.7055   -0.7488   -4.9276 C   0  0  0  0  0  0  0  0  0  0  0  0
   -1.9142   -0.1517   -4.5506 C   0  0  0  0  0  0  0  0  0  0  0  0
   -1.9347    1.1705   -4.1376 C   0  0  0  0  0  0  0  0  0  0  0  0
   -0.7332    1.8794   -4.0694 C   0  0  0  0  0  0  0  0  0  0  0  0
   -3.0617    1.8537   -3.7807 O   0  0  0  0  0  0  0  0  0  0  0  0
   -4.3094    1.3318   -4.2574 C   0  0  2  0  0  0  0  0  0  0  0  0
   -4.4311   -0.1710   -4.2152 C   0  0  0  0  0  0  0  0  0  0  0  0
   -5.4677   -0.7773   -3.9844 O   0  0  0  0  0  0  0  0  0  0  0  0
   -3.1695   -0.9095   -4.5982 C   0  0  0  0  0  0  0  0  0  0  0  0
   -3.2018   -2.0755   -4.9581 O   0  0  0  0  0  0  0  0  0  0  0  0
   -4.6082    1.8599   -5.6338 C   0  0  1  0  0  0  0  0  0  0  0  0
   -3.6545    1.5514   -6.6744 O   0  0  0  0  0  0  0  0  0  0  0  0
   -5.9685    1.7733   -6.0635 O   0  0  0  0  0  0  0  0  0  0  0  0
   -5.4892    3.0025   -5.8185 C   0  0  0  0  0  0  0  0  0  0  0  0
   -5.8933    3.8618   -5.0569 O   0  0  0  0  0  0  0  0  0  0  0  0
    3.6293   -3.5968   -1.6879 C   0  0  0  0  0  0  0  0  0  0  0  0
    2.7857   -3.0730   -0.9757 O   0  0  0  0  0  0  0  0  0  0  0  0
    4.8213   -4.3161   -1.0947 C   0  0  0  0  0  0  0  0  0  0  0  0
    4.9750   -4.3726    0.1150 O   0  0  0  0  0  0  0  0  0  0  0  0
    5.8226   -4.9750   -2.0212 C   0  0  0  0  0  0  0  0  0  0  0  0
    6.5365   -5.8917   -1.6533 O   0  0  0  0  0  0  0  0  0  0  0  0
  1  2  1  0  0  0  0
  2  3  2  0  0  0  0
  3  4  1  0  0  0  0
  3 51  1  0  0  0  0
  4  5  1  0  0  0  0
  5  6  1  6  0  0  0
  5 47  1  0  0  0  0
  6  7  1  0  0  0  0
  7  8  2  0  0  0  0
  7 12  1  0  0  0  0
  8  9  1  0  0  0  0
  8 26  1  0  0  0  0
  9 10  1  0  0  0  0
 10 11  2  0  0  0  0
 10 21  1  0  0  0  0
 11 12  1  0  0  0  0
 11 13  1  0  0  0  0
 13 14  2  0  0  0  0
 13 19  1  0  0  0  0
 14 15  1  0  0  0  0
 15 16  2  0  0  0  0
 15 17  1  0  0  0  0
 17 18  2  0  0  0  0
 18 19  1  0  0  0  0
 18 25  1  0  0  0  0
 19 20  2  0  0  0  0
 20 21  1  0  0  0  0
 20 22  1  0  0  0  0
 22 23  1  0  0  0  0
 22 24  1  0  0  0  0
 23 24  1  0  0  0  0
 26 27  2  0  0  0  0
 26 31  1  0  0  0  0
 27 28  1  0  0  0  0
 28 29  2  0  0  0  0
 29 30  1  0  0  0  0
 30 31  2  0  0  0  0
 30 35  1  0  0  0  0
 31 32  1  0  0  0  0
 32 33  2  0  0  0  0
 33 34  1  0  0  0  0
 33 40  1  0  0  0  0
 34 35  2  0  0  0  0
 34 36  1  0  0  0  0
 37 36  1  6  0  0  0
 37 38  1  0  0  0  0
 37 42  1  0  0  0  0
 38 39  2  0  0  0  0
 38 40  1  0  0  0  0
 40 41  2  0  0  0  0
 42 43  1  6  0  0  0
 42 44  1  0  0  0  0
 42 45  1  0  0  0  0
 44 45  1  0  0  0  0
 45 46  2  0  0  0  0
 47 48  2  0  0  0  0
 47 49  1  0  0  0  0
 49 50  2  0  0  0  0
 49 51  1  0  0  0  0
 51 52  2  0  0  0  0
M  END
$$$$