
 OpenBabel11242000123D

 54 62  0  0  1  0  0  0  0  0999 V2000
    6.6073   -0.5133    5.3765 O   0  0  0  0  0  0  0  0  0  0  0  0
    6.2240    0.2380    4.2929 C   0  0  0  0  0  0  0  0  0  0  0  0
    5.0594    0.0560    3.6611 C   0  0  0  0  0  0  0  0  0  0  0  0
    4.1985   -0.9561    4.0398 O   0  0  0  0  0  0  0  0  0  0  0  0
    2.8438   -0.5426    4.0765 C   0  0  2  0  0  0  0  0  0  0  0  0
    2.0060   -1.6618    4.4434 O   0  0  0  0  0  0  0  0  0  0  0  0
    2.2147   -2.2818    5.6624 C   0  0  0  0  0  0  0  0  0  0  0  0
    1.9218   -3.5918    5.8462 C   0  0  0  0  0  0  0  0  0  0  0  0
    2.1054   -4.2062    7.0964 O   0  0  0  0  0  0  0  0  0  0  0  0
    2.6477   -3.4964    8.1709 C   0  0  0  0  0  0  0  0  0  0  0  0
    2.8977   -2.1806    8.0716 C   0  0  0  0  0  0  0  0  0  0  0  0
    2.6950   -1.4217    6.8012 C   0  0  0  0  0  0  0  0  0  0  0  0
    3.4445   -1.3819    9.2148 C   0  0  3  0  0  0  0  0  0  0  0  0
    2.4611   -0.4374    9.5937 O   0  0  0  0  0  0  0  0  0  0  0  0
    2.8176    0.4113   10.5981 C   0  0  0  0  0  0  0  0  0  0  0  0
    2.2183    1.4529   10.8002 O   0  0  0  0  0  0  0  0  0  0  0  0
    3.9083    0.0320   11.3091 O   0  0  0  0  0  0  0  0  0  0  0  0
    4.1987   -1.3477   11.5104 C   0  0  3  0  0  0  0  0  0  0  0  0
    3.6840   -2.2132   10.4120 C   0  0  0  0  0  0  0  0  0  0  0  0
    3.4431   -3.5468   10.4568 C   0  0  0  0  0  0  0  0  0  0  0  0
    2.9163   -4.1871    9.3343 O   0  3  0  0  0  0  0  0  0  0  0  0
    3.7349   -4.3690   11.6673 C   0  0  0  0  0  0  0  0  0  0  0  0
    2.4380   -4.5197   12.7855 S   0  0  0  0  0  0  0  0  0  0  0  0
    3.2598   -6.0239   11.6679 S   0  0  0  0  0  0  0  0  0  0  0  0
    5.6015   -1.5207   11.4676 O   0  0  0  0  0  0  0  0  0  0  0  0
    1.3594   -4.4887    4.7686 C   0  0  0  0  0  0  0  0  0  0  0  0
    0.5450   -3.9332    3.7742 C   0  0  0  0  0  0  0  0  0  0  0  0
    0.0315   -4.6733    2.7884 N   0  3  0  0  0  0  0  0  0  0  0  0
   -0.7005   -4.0700    1.8315 F   0  0  0  0  0  0  0  0  0  0  0  0
    0.2040   -5.9739    2.7175 N   0  0  0  0  0  0  0  0  0  0  0  0
    0.9466   -6.5926    3.6343 C   0  0  0  0  0  0  0  0  0  0  0  0
    1.5713   -5.8947    4.6931 C   0  0  0  0  0  0  0  0  0  0  0  0
    2.3724   -6.6575    5.5805 C   0  0  0  0  0  0  0  0  0  0  0  0
    2.5355   -8.0413    5.4301 C   0  0  0  0  0  0  0  0  0  0  0  0
    3.3852   -8.7825    6.3629 C   0  0  0  0  0  0  0  0  0  0  0  0
    3.7897   -8.2388    7.3807 O   0  0  0  0  0  0  0  0  0  0  0  0
    3.7031  -10.2174    5.9970 C   0  0  0  0  0  0  0  0  0  0  0  0
    4.1702  -10.9718    6.8354 O   0  0  0  0  0  0  0  0  0  0  0  0
    3.4070  -10.5746    4.5536 C   0  0  1  0  0  0  0  0  0  0  0  0
    2.1533  -10.0232    4.0975 O   0  0  0  0  0  0  0  0  0  0  0  0
    1.9348   -8.7058    4.3824 C   0  0  0  0  0  0  0  0  0  0  0  0
    1.1235   -7.9731    3.5178 C   0  0  0  0  0  0  0  0  0  0  0  0
    0.5305   -8.6119    2.4965 F   0  0  0  0  0  0  0  0  0  0  0  0
    4.5718  -10.2652    3.6370 C   0  0  1  0  0  0  0  0  0  0  0  0
    5.8030  -10.9481    3.9324 O   0  0  0  0  0  0  0  0  0  0  0  0
    4.2555  -10.1603    2.2397 O   0  0  0  0  0  0  0  0  0  0  0  0
    4.7077   -9.0576    2.8417 C   0  0  0  0  0  0  0  0  0  0  0  0
    4.2446   -7.9349    2.9600 O   0  0  0  0  0  0  0  0  0  0  0  0
    2.3291   -0.0877    2.7216 C   0  0  0  0  0  0  0  0  0  0  0  0
    1.1858   -0.2724    2.3228 O   0  0  0  0  0  0  0  0  0  0  0  0
    3.3760    0.6108    1.8850 C   0  0  0  0  0  0  0  0  0  0  0  0
    3.1561    0.8445    0.7092 O   0  0  0  0  0  0  0  0  0  0  0  0
    4.7163    0.9402    2.5120 C   0  0  0  0  0  0  0  0  0  0  0  0
    5.4054    1.8659    2.1271 O   0  0  0  0  0  0  0  0  0  0  0  0
  1  2  1  0  0  0  0
  2  3  2  0  0  0  0
  3  4  1  0  0  0  0
  3 53  1  0  0  0  0
  4  5  1  0  0  0  0
  5  6  1  6  0  0  0
  5 49  1  0  0  0  0
  6  7  1  0  0  0  0
  7  8  2  0  0  0  0
  7 12  1  0  0  0  0
  8  9  1  0  0  0  0
  8 26  1  0  0  0  0
  9 10  1  0  0  0  0
 10 11  2  0  0  0  0
 10 21  1  0  0  0  0
 11 12  1  0  0  0  0
 11 13  1  0  0  0  0
 13 14  1  0  0  0  0
 13 19  1  0  0  0  0
 14 15  1  0  0  0  0
 15 16  2  0  0  0  0
 15 17  1  0  0  0  0
 17 18  1  0  0  0  0
 18 19  1  0  0  0  0
 18 25  1  0  0  0  0
 19 20  2  0  0  0  0
 20 21  1  0  0  0  0
 20 22  1  0  0  0  0
 22 23  1  0  0  0  0
 22 24  1  0  0  0  0
 23 24  1  0  0  0  0
 26 27  2  0  0  0  0
 26 32  1  0  0  0  0
 27 28  1  0  0  0  0
 28 29  1  0  0  0  0
 28 30  2  0  0  0  0
 30 31  1  0  0  0  0
 31 32  2  0  0  0  0
 31 42  1  0  0  0  0
 32 33  1  0  0  0  0
 33 34  2  0  0  0  0
 34 35  1  0  0  0  0
 34 41  1  0  0  0  0
 35 36  2  0  0  0  0
 35 37  1  0  0  0  0
 37 38  2  0  0  0  0
 39 37  1  1  0  0  0
 39 40  1  0  0  0  0
 39 44  1  0  0  0  0
 40 41  1  0  0  0  0
 41 42  2  0  0  0  0
 42 43  1  0  0  0  0
 44 45  1  1  0  0  0
 44 46  1  0  0  0  0
 44 47  1  0  0  0  0
 46 47  1  0  0  0  0
 47 48  2  0  0  0  0
 49 50  2  0  0  0  0
 49 51  1  0  0  0  0
 51 52  2  0  0  0  0
 51 53  1  0  0  0  0
 53 54  2  0  0  0  0
M  CHG  2  21   1  28   1
M  END
$$$$