
 OpenBabel11232014533D

 54 62  0  0  1  0  0  0  0  0999 V2000
    3.1175    5.3834   -6.2053 O   0  0  0  0  0  0  0  0  0  0  0  0
    2.4556    4.1806   -6.1666 C   0  0  0  0  0  0  0  0  0  0  0  0
    2.2235    3.5069   -5.0321 C   0  0  0  0  0  0  0  0  0  0  0  0
    2.6984    3.9885   -3.8244 O   0  0  0  0  0  0  0  0  0  0  0  0
    2.0196    3.5588   -2.6472 C   0  0  2  0  0  0  0  0  0  0  0  0
    2.7260    4.0423   -1.4779 O   0  0  0  0  0  0  0  0  0  0  0  0
    2.8499    5.4214   -1.3386 C   0  0  0  0  0  0  0  0  0  0  0  0
    3.9140    5.9696   -0.7123 C   0  0  0  0  0  0  0  0  0  0  0  0
    4.0958    7.3534   -0.5918 O   0  0  0  0  0  0  0  0  0  0  0  0
    3.1117    8.2301   -1.0671 C   0  0  0  0  0  0  0  0  0  0  0  0
    1.9731    7.7630   -1.6129 C   0  0  0  0  0  0  0  0  0  0  0  0
    1.7218    6.2971   -1.8241 C   0  0  0  0  0  0  0  0  0  0  0  0
    0.8730    8.6829   -2.0660 C   0  0  3  0  0  0  0  0  0  0  0  0
   -0.2528    8.4323   -1.2513 O   0  0  0  0  0  0  0  0  0  0  0  0
   -1.3240    9.2694   -1.3644 C   0  0  0  0  0  0  0  0  0  0  0  0
   -2.3979    8.9716   -0.8694 O   0  0  0  0  0  0  0  0  0  0  0  0
   -1.1339   10.4218   -2.0571 O   0  0  0  0  0  0  0  0  0  0  0  0
    0.0915   10.9076   -2.3087 C   0  0  0  0  0  0  0  0  0  0  0  0
    0.2894   11.9326   -2.9444 O   0  0  0  0  0  0  0  0  0  0  0  0
    1.2202   10.0965   -1.8619 C   0  0  0  0  0  0  0  0  0  0  0  0
    2.3929   10.5339   -1.3495 C   0  0  0  0  0  0  0  0  0  0  0  0
    3.3434    9.5885   -0.9498 O   0  3  0  0  0  0  0  0  0  0  0  0
    2.7901   11.9355   -1.0804 C   0  0  0  0  0  0  0  0  0  0  0  0
    3.4674   12.6492   -2.1529 N   0  0  0  0  0  0  0  0  0  0  0  0
    2.2330   13.1434   -1.6243 N   0  0  0  0  0  0  0  0  0  0  0  0
    4.9885    5.1551   -0.0938 C   0  0  0  0  0  0  0  0  0  0  0  0
    6.0882    4.8018   -0.8689 C   0  0  0  0  0  0  0  0  0  0  0  0
    7.0868    4.0789   -0.3500 N   0  3  0  0  0  0  0  0  0  0  0  0
    8.1419    3.7630   -1.1250 F   0  0  0  0  0  0  0  0  0  0  0  0
    7.0916    3.6713    0.9004 N   0  0  0  0  0  0  0  0  0  0  0  0
    6.0556    3.9462    1.6986 C   0  0  0  0  0  0  0  0  0  0  0  0
    4.9520    4.6951    1.2446 C   0  0  0  0  0  0  0  0  0  0  0  0
    3.8837    4.9236    2.1476 C   0  0  0  0  0  0  0  0  0  0  0  0
    3.9105    4.4102    3.4572 C   0  0  0  0  0  0  0  0  0  0  0  0
    2.7739    4.6269    4.3514 C   0  0  0  0  0  0  0  0  0  0  0  0
    1.8543    5.3585    4.0230 O   0  0  0  0  0  0  0  0  0  0  0  0
    2.7966    3.8883    5.6669 C   0  0  0  0  0  0  0  0  0  0  0  0
    1.7500    3.6132    6.2325 O   0  0  0  0  0  0  0  0  0  0  0  0
    4.1825    3.5417    6.1697 C   0  0  1  0  0  0  0  0  0  0  0  0
    5.1251    3.1440    5.1546 O   0  0  0  0  0  0  0  0  0  0  0  0
    4.9955    3.6828    3.9054 C   0  0  0  0  0  0  0  0  0  0  0  0
    6.0553    3.4722    3.0181 C   0  0  0  0  0  0  0  0  0  0  0  0
    7.1551    2.7662    3.4520 O   0  0  0  0  0  0  0  0  0  0  0  0
    4.7378    4.6226    7.0632 C   0  0  1  0  0  0  0  0  0  0  0  0
    3.9854    4.9351    8.2461 O   0  0  0  0  0  0  0  0  0  0  0  0
    6.1589    4.6188    7.2498 O   0  0  0  0  0  0  0  0  0  0  0  0
    5.6402    5.6569    6.5644 C   0  0  0  0  0  0  0  0  0  0  0  0
    5.8595    6.0524    5.4428 O   0  0  0  0  0  0  0  0  0  0  0  0
    1.9219    2.0451   -2.5977 C   0  0  0  0  0  0  0  0  0  0  0  0
    2.3126    1.3306   -1.6888 O   0  0  0  0  0  0  0  0  0  0  0  0
    1.2702    1.4910   -3.8366 C   0  0  0  0  0  0  0  0  0  0  0  0
    0.5187    0.5359   -3.7547 O   0  0  0  0  0  0  0  0  0  0  0  0
    1.4955    2.2069   -5.1514 C   0  0  0  0  0  0  0  0  0  0  0  0
    1.0970    1.7509   -6.2089 O   0  0  0  0  0  0  0  0  0  0  0  0
  1  2  1  0  0  0  0
  2  3  2  0  0  0  0
  3  4  1  0  0  0  0
  3 53  1  0  0  0  0
  4  5  1  0  0  0  0
  5  6  1  1  0  0  0
  5 49  1  0  0  0  0
  6  7  1  0  0  0  0
  7  8  2  0  0  0  0
  7 12  1  0  0  0  0
  8  9  1  0  0  0  0
  8 26  1  0  0  0  0
  9 10  1  0  0  0  0
 10 11  2  0  0  0  0
 10 22  1  0  0  0  0
 11 12  1  0  0  0  0
 11 13  1  0  0  0  0
 13 14  1  0  0  0  0
 13 20  1  0  0  0  0
 14 15  1  0  0  0  0
 15 16  2  0  0  0  0
 15 17  1  0  0  0  0
 17 18  1  0  0  0  0
 18 19  2  0  0  0  0
 18 20  1  0  0  0  0
 20 21  2  0  0  0  0
 21 22  1  0  0  0  0
 21 23  1  0  0  0  0
 23 24  1  0  0  0  0
 23 25  1  0  0  0  0
 24 25  1  0  0  0  0
 26 27  2  0  0  0  0
 26 32  1  0  0  0  0
 27 28  1  0  0  0  0
 28 29  1  0  0  0  0
 28 30  2  0  0  0  0
 30 31  1  0  0  0  0
 31 32  2  0  0  0  0
 31 42  1  0  0  0  0
 32 33  1  0  0  0  0
 33 34  2  0  0  0  0
 34 35  1  0  0  0  0
 34 41  1  0  0  0  0
 35 36  2  0  0  0  0
 35 37  1  0  0  0  0
 37 38  2  0  0  0  0
 39 37  1  6  0  0  0
 39 40  1  0  0  0  0
 39 44  1  0  0  0  0
 40 41  1  0  0  0  0
 41 42  2  0  0  0  0
 42 43  1  0  0  0  0
 44 45  1  1  0  0  0
 44 46  1  0  0  0  0
 44 47  1  0  0  0  0
 46 47  1  0  0  0  0
 47 48  2  0  0  0  0
 49 50  2  0  0  0  0
 49 51  1  0  0  0  0
 51 52  2  0  0  0  0
 51 53  1  0  0  0  0
 53 54  2  0  0  0  0
M  CHG  2  22   1  28   1
M  END
$$$$