
 OpenBabel11242001493D

 53 62  0  0  1  0  0  0  0  0999 V2000
   -9.6134   -9.1162    8.6545 O   0  0  0  0  0  0  0  0  0  0  0  0
  -10.1262   -8.5158    9.7764 C   0  0  0  0  0  0  0  0  0  0  0  0
  -10.4888   -7.2285    9.8041 C   0  0  0  0  0  0  0  0  0  0  0  0
  -10.3415   -6.4337    8.6729 O   0  0  0  0  0  0  0  0  0  0  0  0
  -11.2688   -5.3500    8.6053 C   0  0  2  0  0  0  0  0  0  0  0  0
  -11.0740   -4.5630    7.4120 O   0  0  0  0  0  0  0  0  0  0  0  0
  -11.0845   -5.2195    6.1940 C   0  0  0  0  0  0  0  0  0  0  0  0
  -10.3297   -4.7793    5.1594 C   0  0  0  0  0  0  0  0  0  0  0  0
  -10.4145   -5.3927    3.8986 O   0  0  0  0  0  0  0  0  0  0  0  0
  -11.3875   -6.3573    3.6324 C   0  0  0  0  0  0  0  0  0  0  0  0
  -12.1549   -6.8566    4.6183 C   0  0  0  0  0  0  0  0  0  0  0  0
  -12.0483   -6.3732    6.0337 C   0  0  0  0  0  0  0  0  0  0  0  0
  -13.1324   -7.9041    4.3332 C   0  0  0  0  0  0  0  0  0  0  0  0
  -13.7480   -8.4759    5.3709 N   0  0  0  0  0  0  0  0  0  0  0  0
  -14.6213   -9.4528    5.0747 C   0  0  0  0  0  0  0  0  0  0  0  0
  -15.2552  -10.0405    6.0995 F   0  0  0  0  0  0  0  0  0  0  0  0
  -14.8972   -9.8795    3.8380 N   0  0  0  0  0  0  0  0  0  0  0  0
  -14.2604   -9.2738    2.8234 C   0  0  0  0  0  0  0  0  0  0  0  0
  -13.3489   -8.2553    3.0109 C   0  0  0  0  0  0  0  0  0  0  0  0
  -12.6566   -7.5254    1.9093 C   0  0  3  0  0  0  0  0  0  0  0  0
  -11.5111   -6.7838    2.3145 O   0  3  0  0  0  0  0  0  0  0  0  0
  -13.6246   -6.6185    1.1740 C   0  0  0  0  0  0  0  0  0  0  0  0
  -14.0714   -5.4847    1.8950 O   0  0  0  0  0  0  0  0  0  0  0  0
  -13.1274   -5.3385    0.8192 O   0  0  0  0  0  0  0  0  0  0  0  0
   -9.3557   -3.6242    5.2513 C   0  0  0  0  0  0  0  0  0  0  0  0
   -8.6972   -3.3787    6.4622 C   0  0  0  0  0  0  0  0  0  0  0  0
   -7.8374   -2.3638    6.6026 N   0  3  0  0  0  0  0  0  0  0  0  0
   -7.2667   -2.1535    7.8066 F   0  0  0  0  0  0  0  0  0  0  0  0
   -7.5021   -1.5744    5.6056 N   0  0  0  0  0  0  0  0  0  0  0  0
   -8.0360   -1.7684    4.4005 C   0  0  0  0  0  0  0  0  0  0  0  0
   -8.9983   -2.7770    4.1640 C   0  0  0  0  0  0  0  0  0  0  0  0
   -9.5115   -2.8762    2.8486 C   0  0  0  0  0  0  0  0  0  0  0  0
   -9.0003   -2.1151    1.7888 C   0  0  0  0  0  0  0  0  0  0  0  0
   -8.0505   -1.1471    2.0291 C   0  0  0  0  0  0  0  0  0  0  0  0
   -7.6088   -0.9628    3.3371 C   0  0  0  0  0  0  0  0  0  0  0  0
   -6.6873   -0.0178    3.5778 F   0  0  0  0  0  0  0  0  0  0  0  0
   -7.5330   -0.3624    1.0340 O   0  0  0  0  0  0  0  0  0  0  0  0
   -7.4930   -1.0021   -0.2709 C   0  0  1  0  0  0  0  0  0  0  0  0
   -8.7423   -1.6590   -0.7167 C   0  0  0  0  0  0  0  0  0  0  0  0
   -9.1405   -1.7177   -1.8594 O   0  0  0  0  0  0  0  0  0  0  0  0
   -9.3984   -2.4384    0.4116 C   0  0  0  0  0  0  0  0  0  0  0  0
  -10.1293   -3.4018    0.2162 O   0  0  0  0  0  0  0  0  0  0  0  0
   -6.7164   -0.3661   -1.2481 O   0  0  0  0  0  0  0  0  0  0  0  0
   -6.2122   -1.6333   -0.7380 C   0  0  1  0  0  0  0  0  0  0  0  0
   -5.3141   -1.6280    0.4261 O   0  0  0  0  0  0  0  0  0  0  0  0
   -4.7692   -1.5438   -0.7717 C   0  0  0  0  0  0  0  0  0  0  0  0
   -3.9232   -2.2415   -1.2909 O   0  0  0  0  0  0  0  0  0  0  0  0
  -10.9364   -4.4476    9.7716 C   0  0  0  0  0  0  0  0  0  0  0  0
  -10.4220   -3.3402    9.6833 O   0  0  0  0  0  0  0  0  0  0  0  0
  -11.1473   -5.1542   11.0854 C   0  0  0  0  0  0  0  0  0  0  0  0
  -11.4325   -4.5180   12.0818 O   0  0  0  0  0  0  0  0  0  0  0  0
  -11.0073   -6.6692   11.0939 C   0  0  0  0  0  0  0  0  0  0  0  0
  -11.3188   -7.3458   12.0559 O   0  0  0  0  0  0  0  0  0  0  0  0
  1  2  1  0  0  0  0
  2  3  2  0  0  0  0
  3  4  1  0  0  0  0
  3 52  1  0  0  0  0
  4  5  1  0  0  0  0
  5  6  1  6  0  0  0
  5 48  1  0  0  0  0
  6  7  1  0  0  0  0
  7  8  2  0  0  0  0
  7 12  1  0  0  0  0
  8  9  1  0  0  0  0
  8 25  1  0  0  0  0
  9 10  1  0  0  0  0
 10 11  2  0  0  0  0
 10 21  1  0  0  0  0
 11 12  1  0  0  0  0
 11 13  1  0  0  0  0
 13 14  2  0  0  0  0
 13 19  1  0  0  0  0
 14 15  1  0  0  0  0
 15 16  1  0  0  0  0
 15 17  2  0  0  0  0
 17 18  1  0  0  0  0
 18 19  2  0  0  0  0
 19 20  1  0  0  0  0
 20 21  1  0  0  0  0
 20 22  1  0  0  0  0
 22 23  1  0  0  0  0
 22 24  1  0  0  0  0
 23 24  1  0  0  0  0
 25 26  2  0  0  0  0
 25 31  1  0  0  0  0
 26 27  1  0  0  0  0
 27 28  1  0  0  0  0
 27 29  2  0  0  0  0
 29 30  1  0  0  0  0
 30 31  2  0  0  0  0
 30 35  1  0  0  0  0
 31 32  1  0  0  0  0
 32 33  2  0  0  0  0
 33 34  1  0  0  0  0
 33 41  1  0  0  0  0
 34 35  2  0  0  0  0
 34 37  1  0  0  0  0
 35 36  1  0  0  0  0
 38 37  1  1  0  0  0
 38 39  1  0  0  0  0
 38 43  1  0  0  0  0
 38 44  1  0  0  0  0
 39 40  2  0  0  0  0
 39 41  1  0  0  0  0
 41 42  2  0  0  0  0
 44 43  1  1  0  0  0
 44 45  1  0  0  0  0
 44 46  1  0  0  0  0
 45 46  1  0  0  0  0
 46 47  2  0  0  0  0
 48 49  2  0  0  0  0
 48 50  1  0  0  0  0
 50 51  2  0  0  0  0
 50 52  1  0  0  0  0
 52 53  2  0  0  0  0
M  CHG  2  21   1  27   1
M  END
$$$$