
 OpenBabel11242000243D

 53 62  0  0  1  0  0  0  0  0999 V2000
    7.0691   -8.5384  -15.9448 O   0  0  0  0  0  0  0  0  0  0  0  0
    5.9667   -9.3355  -16.1148 C   0  0  0  0  0  0  0  0  0  0  0  0
    4.7121   -8.8669  -16.0452 C   0  0  0  0  0  0  0  0  0  0  0  0
    4.4840   -7.5329  -15.7467 O   0  0  0  0  0  0  0  0  0  0  0  0
    3.2369   -7.0001  -16.1668 C   0  0  2  0  0  0  0  0  0  0  0  0
    3.0664   -5.6584  -15.6287 O   0  0  0  0  0  0  0  0  0  0  0  0
    4.0387   -4.7408  -15.9906 C   0  0  0  0  0  0  0  0  0  0  0  0
    4.5179   -3.8311  -15.1082 C   0  0  0  0  0  0  0  0  0  0  0  0
    5.4923   -2.9100  -15.4712 O   0  3  0  0  0  0  0  0  0  0  0  0
    5.8711   -2.7790  -16.7883 C   0  0  0  0  0  0  0  0  0  0  0  0
    5.3874   -3.5892  -17.7474 C   0  0  0  0  0  0  0  0  0  0  0  0
    4.4603   -4.7225  -17.4459 C   0  0  0  0  0  0  0  0  0  0  0  0
    5.8239   -3.4439  -19.1839 C   0  0  3  0  0  0  0  0  0  0  0  0
    4.6626   -3.1100  -19.9878 N   0  0  0  0  0  0  0  0  0  0  0  0
    4.8886   -2.9239  -21.3150 C   0  0  0  0  0  0  0  0  0  0  0  0
    4.0649   -3.2916  -22.2210 N   0  0  0  0  0  0  0  0  0  0  0  0
    6.0099   -2.2327  -21.6198 N   0  0  0  0  0  0  0  0  0  0  0  0
    7.2281   -2.2883  -20.8490 C   0  0  0  0  0  0  0  0  0  0  0  0
    6.8339   -2.3605  -19.4041 C   0  0  0  0  0  0  0  0  0  0  0  0
    7.2663   -1.5725  -18.3963 C   0  0  0  0  0  0  0  0  0  0  0  0
    6.7537   -1.7699  -17.1011 N   0  0  0  0  0  0  0  0  0  0  0  0
    8.2947   -0.5235  -18.5486 C   0  0  3  0  0  0  0  0  0  0  0  0
    9.6331   -0.8751  -18.2402 N   0  0  0  0  0  0  0  0  0  0  0  0
    9.0534   -0.1727  -17.3932 N   0  0  0  0  0  0  0  0  0  0  0  0
    3.9771   -3.7238  -13.7154 C   0  0  0  0  0  0  0  0  0  0  0  0
    2.6742   -3.2371  -13.5476 C   0  0  0  0  0  0  0  0  0  0  0  0
    2.1661   -3.0399  -12.3242 N   0  3  0  0  0  0  0  0  0  0  0  0
    0.9252   -2.5281  -12.2020 F   0  0  0  0  0  0  0  0  0  0  0  0
    2.8577   -3.2707  -11.2262 N   0  0  0  0  0  0  0  0  0  0  0  0
    4.0810   -3.8043  -11.2973 C   0  0  0  0  0  0  0  0  0  0  0  0
    4.6883   -4.0805  -12.5456 C   0  0  0  0  0  0  0  0  0  0  0  0
    5.9505   -4.7156  -12.5492 C   0  0  0  0  0  0  0  0  0  0  0  0
    6.5968   -5.0560  -11.3484 C   0  0  0  0  0  0  0  0  0  0  0  0
    6.0168   -4.7509  -10.1321 C   0  0  0  0  0  0  0  0  0  0  0  0
    4.7798   -4.0785  -10.0967 C   0  0  0  0  0  0  0  0  0  0  0  0
    4.1542   -3.8852   -8.8477 N   0  0  0  0  0  0  0  0  0  0  0  0
    6.6367   -5.0122   -8.9344 O   0  0  0  0  0  0  0  0  0  0  0  0
    7.5877   -6.1066   -8.9423 C   0  0  1  0  0  0  0  0  0  0  0  0
    8.5242   -6.1720  -10.0777 C   0  0  0  0  0  0  0  0  0  0  0  0
    9.6535   -6.6263  -10.0249 O   0  0  0  0  0  0  0  0  0  0  0  0
    7.9052   -5.7175  -11.3828 C   0  0  0  0  0  0  0  0  0  0  0  0
    8.4532   -5.8851  -12.4613 O   0  0  0  0  0  0  0  0  0  0  0  0
    8.1368   -6.4221   -7.6852 O   0  0  0  0  0  0  0  0  0  0  0  0
    7.2359   -7.4053   -8.2777 C   0  0  1  0  0  0  0  0  0  0  0  0
    5.8028   -7.3240   -7.9479 O   0  0  0  0  0  0  0  0  0  0  0  0
    6.5764   -8.0578   -7.1742 C   0  0  0  0  0  0  0  0  0  0  0  0
    6.4854   -9.2176   -6.8371 O   0  0  0  0  0  0  0  0  0  0  0  0
    2.0827   -7.8309  -15.6562 C   0  0  0  0  0  0  0  0  0  0  0  0
    1.1459   -7.3997  -14.9966 O   0  0  0  0  0  0  0  0  0  0  0  0
    2.2139   -9.2779  -16.0374 C   0  0  0  0  0  0  0  0  0  0  0  0
    1.2115   -9.9445  -16.2288 O   0  0  0  0  0  0  0  0  0  0  0  0
    3.6025   -9.8514  -16.2364 C   0  0  0  0  0  0  0  0  0  0  0  0
    3.7764  -11.0184  -16.5379 O   0  0  0  0  0  0  0  0  0  0  0  0
  1  2  1  0  0  0  0
  2  3  2  0  0  0  0
  3  4  1  0  0  0  0
  3 52  1  0  0  0  0
  4  5  1  0  0  0  0
  5  6  1  1  0  0  0
  5 48  1  0  0  0  0
  6  7  1  0  0  0  0
  7  8  2  0  0  0  0
  7 12  1  0  0  0  0
  8  9  1  0  0  0  0
  8 25  1  0  0  0  0
  9 10  1  0  0  0  0
 10 11  2  0  0  0  0
 10 21  1  0  0  0  0
 11 12  1  0  0  0  0
 11 13  1  0  0  0  0
 13 14  1  0  0  0  0
 13 19  1  0  0  0  0
 14 15  1  0  0  0  0
 15 16  2  0  0  0  0
 15 17  1  0  0  0  0
 17 18  1  0  0  0  0
 18 19  1  0  0  0  0
 19 20  2  0  0  0  0
 20 21  1  0  0  0  0
 20 22  1  0  0  0  0
 22 23  1  0  0  0  0
 22 24  1  0  0  0  0
 23 24  2  0  0  0  0
 25 26  2  0  0  0  0
 25 31  1  0  0  0  0
 26 27  1  0  0  0  0
 27 28  1  0  0  0  0
 27 29  2  0  0  0  0
 29 30  1  0  0  0  0
 30 31  2  0  0  0  0
 30 35  1  0  0  0  0
 31 32  1  0  0  0  0
 32 33  2  0  0  0  0
 33 34  1  0  0  0  0
 33 41  1  0  0  0  0
 34 35  2  0  0  0  0
 34 37  1  0  0  0  0
 35 36  1  0  0  0  0
 38 37  1  6  0  0  0
 38 39  1  0  0  0  0
 38 43  1  0  0  0  0
 38 44  1  0  0  0  0
 39 40  2  0  0  0  0
 39 41  1  0  0  0  0
 41 42  2  0  0  0  0
 44 43  1  1  0  0  0
 44 45  1  0  0  0  0
 44 46  1  0  0  0  0
 45 46  1  0  0  0  0
 46 47  2  0  0  0  0
 48 49  2  0  0  0  0
 48 50  1  0  0  0  0
 50 51  2  0  0  0  0
 50 52  1  0  0  0  0
 52 53  2  0  0  0  0
M  CHG  2   9   1  27   1
M  END
$$$$