
 OpenBabel11232014483D

 54 62  0  0  1  0  0  0  0  0999 V2000
    0.5391    5.0059    2.4070 O   0  0  0  0  0  0  0  0  0  0  0  0
    1.8431    5.2458    2.7524 C   0  0  0  0  0  0  0  0  0  0  0  0
    2.6063    4.3573    3.4031 C   0  0  0  0  0  0  0  0  0  0  0  0
    2.1012    3.1479    3.8546 O   0  0  0  0  0  0  0  0  0  0  0  0
    2.9712    2.0411    3.6752 C   0  0  2  0  0  0  0  0  0  0  0  0
    2.2983    0.8293    4.1170 O   0  0  0  0  0  0  0  0  0  0  0  0
    2.3277    0.3982    5.4399 C   0  0  0  0  0  0  0  0  0  0  0  0
    2.2409   -0.9240    5.7403 C   0  0  0  0  0  0  0  0  0  0  0  0
    2.4661   -1.3844    7.0522 O   0  0  0  0  0  0  0  0  0  0  0  0
    2.9399   -0.5086    8.0392 C   0  0  0  0  0  0  0  0  0  0  0  0
    2.8950    0.8181    7.8532 C   0  0  0  0  0  0  0  0  0  0  0  0
    2.4225    1.4207    6.5545 C   0  0  0  0  0  0  0  0  0  0  0  0
    3.3976    1.7717    8.8835 C   0  0  3  0  0  0  0  0  0  0  0  0
    2.4290    2.7788    9.1068 O   0  0  0  0  0  0  0  0  0  0  0  0
    2.9121    3.8227    9.8453 C   0  0  0  0  0  0  0  0  0  0  0  0
    2.4662    4.9487    9.7901 O   0  0  0  0  0  0  0  0  0  0  0  0
    3.9340    3.4432   10.6720 O   0  0  0  0  0  0  0  0  0  0  0  0
    3.6889    2.1914   11.2513 C   0  0  3  0  0  0  0  0  0  0  0  0
    3.6386    1.0960   10.2162 C   0  0  0  0  0  0  0  0  0  0  0  0
    3.7474   -0.2609   10.3579 C   0  0  0  0  0  0  0  0  0  0  0  0
    3.4513   -1.0670    9.2076 O   0  3  0  0  0  0  0  0  0  0  0  0
    4.0929   -0.9900   11.6558 C   0  0  0  0  0  0  0  0  0  0  0  0
    4.3662   -0.3282   12.9851 N   0  3  0  0  0  0  0  0  0  0  0  0
    5.3087   -0.5800   12.4700 N   0  3  0  0  0  0  0  0  0  0  0  0
    4.7670    1.8460   12.1185 O   0  0  0  0  0  0  0  0  0  0  0  0
    1.8523   -1.9838    4.7278 C   0  0  0  0  0  0  0  0  0  0  0  0
    0.9628   -1.6156    3.7066 C   0  0  0  0  0  0  0  0  0  0  0  0
    0.5658   -2.4802    2.7694 N   0  3  0  0  0  0  0  0  0  0  0  0
   -0.2762   -2.0631    1.8038 F   0  0  0  0  0  0  0  0  0  0  0  0
    0.9631   -3.7283    2.7530 N   0  0  0  0  0  0  0  0  0  0  0  0
    1.7753   -4.1860    3.7044 C   0  0  0  0  0  0  0  0  0  0  0  0
    2.2468   -3.3553    4.7476 C   0  0  0  0  0  0  0  0  0  0  0  0
    3.0602   -3.9764    5.7292 C   0  0  0  0  0  0  0  0  0  0  0  0
    3.3769   -5.3482    5.6870 C   0  0  0  0  0  0  0  0  0  0  0  0
    4.0543   -5.9654    6.8296 C   0  0  0  0  0  0  0  0  0  0  0  0
    4.2898   -5.2921    7.8290 O   0  0  0  0  0  0  0  0  0  0  0  0
    4.3031   -7.4592    6.7409 C   0  0  0  0  0  0  0  0  0  0  0  0
    4.4995   -8.0947    7.7649 O   0  0  0  0  0  0  0  0  0  0  0  0
    4.2882   -8.0207    5.3296 C   0  0  1  0  0  0  0  0  0  0  0  0
    3.2793   -7.4535    4.4697 O   0  0  0  0  0  0  0  0  0  0  0  0
    2.9745   -6.1324    4.6280 C   0  0  0  0  0  0  0  0  0  0  0  0
    2.1635   -5.5359    3.6611 C   0  0  0  0  0  0  0  0  0  0  0  0
    1.6988   -6.2975    2.6146 O   0  0  0  0  0  0  0  0  0  0  0  0
    5.6406   -7.8937    4.7063 C   0  0  1  0  0  0  0  0  0  0  0  0
    6.1647   -6.5437    4.5792 O   0  0  0  0  0  0  0  0  0  0  0  0
    6.5799   -8.8774    5.1183 O   0  0  0  0  0  0  0  0  0  0  0  0
    6.2454   -8.8916    3.8100 C   0  0  0  0  0  0  0  0  0  0  0  0
    6.9264   -8.6775    2.8342 O   0  0  0  0  0  0  0  0  0  0  0  0
    4.3661    2.2303    4.2747 C   0  0  0  0  0  0  0  0  0  0  0  0
    4.9685    1.3724    4.9170 O   0  0  0  0  0  0  0  0  0  0  0  0
    4.8941    3.6346    4.1785 C   0  0  0  0  0  0  0  0  0  0  0  0
    6.0229    3.8470    4.5939 O   0  0  0  0  0  0  0  0  0  0  0  0
    4.0056    4.7627    3.7077 C   0  0  0  0  0  0  0  0  0  0  0  0
    4.4187    5.9061    3.6467 O   0  0  0  0  0  0  0  0  0  0  0  0
  1  2  1  0  0  0  0
  2  3  2  0  0  0  0
  3  4  1  0  0  0  0
  3 53  1  0  0  0  0
  4  5  1  0  0  0  0
  5  6  1  1  0  0  0
  5 49  1  0  0  0  0
  6  7  1  0  0  0  0
  7  8  2  0  0  0  0
  7 12  1  0  0  0  0
  8  9  1  0  0  0  0
  8 26  1  0  0  0  0
  9 10  1  0  0  0  0
 10 11  2  0  0  0  0
 10 21  1  0  0  0  0
 11 12  1  0  0  0  0
 11 13  1  0  0  0  0
 13 14  1  0  0  0  0
 13 19  1  0  0  0  0
 14 15  1  0  0  0  0
 15 16  2  0  0  0  0
 15 17  1  0  0  0  0
 17 18  1  0  0  0  0
 18 19  1  0  0  0  0
 18 25  1  0  0  0  0
 19 20  2  0  0  0  0
 20 21  1  0  0  0  0
 20 22  1  0  0  0  0
 22 23  1  0  0  0  0
 22 24  1  0  0  0  0
 23 24  3  0  0  0  0
 26 27  2  0  0  0  0
 26 32  1  0  0  0  0
 27 28  1  0  0  0  0
 28 29  1  0  0  0  0
 28 30  2  0  0  0  0
 30 31  1  0  0  0  0
 31 32  2  0  0  0  0
 31 42  1  0  0  0  0
 32 33  1  0  0  0  0
 33 34  2  0  0  0  0
 34 35  1  0  0  0  0
 34 41  1  0  0  0  0
 35 36  2  0  0  0  0
 35 37  1  0  0  0  0
 37 38  2  0  0  0  0
 39 37  1  1  0  0  0
 39 40  1  0  0  0  0
 39 44  1  0  0  0  0
 40 41  1  0  0  0  0
 41 42  2  0  0  0  0
 42 43  1  0  0  0  0
 44 45  1  6  0  0  0
 44 46  1  0  0  0  0
 44 47  1  0  0  0  0
 46 47  1  0  0  0  0
 47 48  2  0  0  0  0
 49 50  2  0  0  0  0
 49 51  1  0  0  0  0
 51 52  2  0  0  0  0
 51 53  1  0  0  0  0
 53 54  2  0  0  0  0
M  CHG  4  21   1  23   1  24   1  28   1
M  END
$$$$