
 OpenBabel11272019513D

 54 62  0  0  1  0  0  0  0  0999 V2000
    5.8302    1.1435    7.1820 F   0  0  0  0  0  0  0  0  0  0  0  0
    6.0716    1.8026    6.0301 C   0  0  0  0  0  0  0  0  0  0  0  0
    5.4653    1.4485    4.8953 C   0  0  0  0  0  0  0  0  0  0  0  0
    4.6307    0.3497    4.8461 O   0  0  0  0  0  0  0  0  0  0  0  0
    3.3685    0.6588    4.2654 C   0  0  2  0  0  0  0  0  0  0  0  0
    2.4491   -0.4630    4.3321 O   0  0  0  0  0  0  0  0  0  0  0  0
    2.4410   -1.2780    5.4539 C   0  0  0  0  0  0  0  0  0  0  0  0
    2.1172   -2.5947    5.3732 C   0  0  0  0  0  0  0  0  0  0  0  0
    2.1994   -3.4314    6.5079 O   0  0  0  0  0  0  0  0  0  0  0  0
    2.6723   -2.9322    7.7322 C   0  0  0  0  0  0  0  0  0  0  0  0
    2.8708   -1.6115    7.9012 C   0  0  0  0  0  0  0  0  0  0  0  0
    2.7095   -0.6308    6.7892 C   0  0  0  0  0  0  0  0  0  0  0  0
    3.3443   -1.0189    9.1980 C   0  0  3  0  0  0  0  0  0  0  0  0
    2.3492   -0.1394    9.6680 O   0  0  0  0  0  0  0  0  0  0  0  0
    2.5986    0.4611   10.8674 C   0  0  0  0  0  0  0  0  0  0  0  0
    2.0168    1.4877   11.1760 O   0  0  0  0  0  0  0  0  0  0  0  0
    3.5048   -0.1438   11.6800 O   0  0  0  0  0  0  0  0  0  0  0  0
    3.8984   -1.4174   11.4901 C   0  0  0  0  0  0  0  0  0  0  0  0
    4.5822   -2.0341   12.2922 O   0  0  0  0  0  0  0  0  0  0  0  0
    3.5049   -2.0429   10.2304 C   0  0  0  0  0  0  0  0  0  0  0  0
    3.3304   -3.3661   10.0218 C   0  0  0  0  0  0  0  0  0  0  0  0
    2.9209   -3.8231    8.7667 O   0  3  0  0  0  0  0  0  0  0  0  0
    3.5559   -4.4136   11.0529 C   0  0  0  0  0  0  0  0  0  0  0  0
    3.3446   -5.7991   10.7354 O   0  0  0  0  0  0  0  0  0  0  0  0
    4.6766   -5.3000   10.9522 O   0  0  0  0  0  0  0  0  0  0  0  0
    1.5833   -3.2529    4.1126 C   0  0  0  0  0  0  0  0  0  0  0  0
    0.8155   -2.4798    3.2339 C   0  0  0  0  0  0  0  0  0  0  0  0
    0.2814   -2.9896    2.1215 N   0  3  0  0  0  0  0  0  0  0  0  0
   -0.4262   -2.1831    1.3067 F   0  0  0  0  0  0  0  0  0  0  0  0
    0.3841   -4.2574    1.8030 N   0  0  0  0  0  0  0  0  0  0  0  0
    1.0767   -5.0851    2.5832 C   0  0  0  0  0  0  0  0  0  0  0  0
    1.7210   -4.6268    3.7634 C   0  0  0  0  0  0  0  0  0  0  0  0
    2.4646   -5.5779    4.4957 C   0  0  0  0  0  0  0  0  0  0  0  0
    2.5447   -6.9194    4.0957 C   0  0  0  0  0  0  0  0  0  0  0  0
    3.3020   -7.8728    4.9068 C   0  0  0  0  0  0  0  0  0  0  0  0
    3.7705   -7.5270    5.9818 O   0  0  0  0  0  0  0  0  0  0  0  0
    3.4017   -9.2835    4.3732 C   0  0  0  0  0  0  0  0  0  0  0  0
    3.6179  -10.2107    5.1376 O   0  0  0  0  0  0  0  0  0  0  0  0
    3.1670   -9.4036    2.8835 C   0  0  1  0  0  0  0  0  0  0  0  0
    2.0355   -8.6261    2.4435 O   0  0  0  0  0  0  0  0  0  0  0  0
    1.9229   -7.3513    2.9397 C   0  0  0  0  0  0  0  0  0  0  0  0
    1.1463   -6.4428    2.1997 C   0  0  0  0  0  0  0  0  0  0  0  0
    0.6438   -6.8588    0.9444 N   0  0  0  0  0  0  0  0  0  0  0  0
    4.4196   -9.1502    2.0787 C   0  0  1  0  0  0  0  0  0  0  0  0
    5.5226  -10.0380    2.3343 O   0  0  0  0  0  0  0  0  0  0  0  0
    4.2168   -8.8121    0.6953 O   0  0  0  0  0  0  0  0  0  0  0  0
    4.7650   -7.8763    1.4769 C   0  0  0  0  0  0  0  0  0  0  0  0
    4.4531   -6.7311    1.7488 O   0  0  0  0  0  0  0  0  0  0  0  0
    3.5583    0.9839    2.7925 C   0  0  0  0  0  0  0  0  0  0  0  0
    2.8026    0.5994    1.9081 O   0  0  0  0  0  0  0  0  0  0  0  0
    4.7941    1.8237    2.5069 C   0  0  0  0  0  0  0  0  0  0  0  0
    5.0479    2.1537    1.3613 O   0  0  0  0  0  0  0  0  0  0  0  0
    5.7163    2.2205    3.6530 C   0  0  0  0  0  0  0  0  0  0  0  0
    6.5501    3.1004    3.5602 O   0  0  0  0  0  0  0  0  0  0  0  0
  1  2  1  0  0  0  0
  2  3  2  0  0  0  0
  3  4  1  0  0  0  0
  3 53  1  0  0  0  0
  4  5  1  0  0  0  0
  5  6  1  6  0  0  0
  5 49  1  0  0  0  0
  6  7  1  0  0  0  0
  7  8  2  0  0  0  0
  7 12  1  0  0  0  0
  8  9  1  0  0  0  0
  8 26  1  0  0  0  0
  9 10  1  0  0  0  0
 10 11  2  0  0  0  0
 10 22  1  0  0  0  0
 11 12  1  0  0  0  0
 11 13  1  0  0  0  0
 13 14  1  0  0  0  0
 13 20  1  0  0  0  0
 14 15  1  0  0  0  0
 15 16  2  0  0  0  0
 15 17  1  0  0  0  0
 17 18  1  0  0  0  0
 18 19  2  0  0  0  0
 18 20  1  0  0  0  0
 20 21  2  0  0  0  0
 21 22  1  0  0  0  0
 21 23  1  0  0  0  0
 23 24  1  0  0  0  0
 23 25  1  0  0  0  0
 24 25  1  0  0  0  0
 26 27  2  0  0  0  0
 26 32  1  0  0  0  0
 27 28  1  0  0  0  0
 28 29  1  0  0  0  0
 28 30  2  0  0  0  0
 30 31  1  0  0  0  0
 31 32  2  0  0  0  0
 31 42  1  0  0  0  0
 32 33  1  0  0  0  0
 33 34  2  0  0  0  0
 34 35  1  0  0  0  0
 34 41  1  0  0  0  0
 35 36  2  0  0  0  0
 35 37  1  0  0  0  0
 37 38  2  0  0  0  0
 39 37  1  1  0  0  0
 39 40  1  0  0  0  0
 39 44  1  0  0  0  0
 40 41  1  0  0  0  0
 41 42  2  0  0  0  0
 42 43  1  0  0  0  0
 44 45  1  1  0  0  0
 44 46  1  0  0  0  0
 44 47  1  0  0  0  0
 46 47  1  0  0  0  0
 47 48  2  0  0  0  0
 49 50  2  0  0  0  0
 49 51  1  0  0  0  0
 51 52  2  0  0  0  0
 51 53  1  0  0  0  0
 53 54  2  0  0  0  0
M  CHG  2  22   1  28   1
M  END
$$$$