
 OpenBabel11212014133D

 52 60  0  0  1  0  0  0  0  0999 V2000
    6.4499    2.4883    4.8975 O   0  0  0  0  0  0  0  0  0  0  0  0
    5.9444    1.5095    4.0794 C   0  0  0  0  0  0  0  0  0  0  0  0
    4.6800    1.5107    3.6385 C   0  0  0  0  0  0  0  0  0  0  0  0
    3.8186    2.5366    3.9965 O   0  0  0  0  0  0  0  0  0  0  0  0
    2.4212    2.2912    3.8376 C   0  0  2  0  0  0  0  0  0  0  0  0
    1.8924    1.2860    4.7146 O   0  0  0  0  0  0  0  0  0  0  0  0
    2.0278    1.4852    6.0820 C   0  0  0  0  0  0  0  0  0  0  0  0
    2.1361    0.4327    6.9210 C   0  0  0  0  0  0  0  0  0  0  0  0
    2.3200    0.5676    8.2937 O   0  0  0  0  0  0  0  0  0  0  0  0
    2.5991    1.8228    8.8082 C   0  0  0  0  0  0  0  0  0  0  0  0
    2.4640    2.9392    8.0725 C   0  0  0  0  0  0  0  0  0  0  0  0
    2.0245    2.8912    6.6420 C   0  0  0  0  0  0  0  0  0  0  0  0
    2.8677    4.2749    8.6393 C   0  0  3  0  0  0  0  0  0  0  0  0
    1.7661    5.1695    8.5608 O   0  0  0  0  0  0  0  0  0  0  0  0
    2.0359    6.4529    8.9213 C   0  0  0  0  0  0  0  0  0  0  0  0
    1.3610    7.3938    8.5315 O   0  0  0  0  0  0  0  0  0  0  0  0
    3.1424    6.6219    9.6955 O   0  0  0  0  0  0  0  0  0  0  0  0
    3.5554    5.5894   10.6065 C   0  0  0  0  0  0  0  0  0  0  0  0
    3.2939    4.2317   10.0685 C   0  0  0  0  0  0  0  0  0  0  0  0
    3.3851    3.0697   10.7529 C   0  0  0  0  0  0  0  0  0  0  0  0
    3.0590    1.8915   10.0996 N   0  0  0  0  0  0  0  0  0  0  0  0
    3.8186    2.9597   12.1657 C   0  0  0  0  0  0  0  0  0  0  0  0
    2.8828    3.0421   13.2515 O   0  0  0  0  0  0  0  0  0  0  0  0
    3.5454    1.7950   12.9641 O   0  0  0  0  0  0  0  0  0  0  0  0
    2.1382   -0.9671    6.4673 C   0  0  0  0  0  0  0  0  0  0  0  0
    3.3709   -1.4411    6.1910 N   0  0  0  0  0  0  0  0  0  0  0  0
    3.5010   -2.6795    5.8242 N   0  0  0  0  0  0  0  0  0  0  0  0
    2.4712   -3.4883    5.7160 N   0  0  0  0  0  0  0  0  0  0  0  0
    1.2248   -3.0649    5.9775 C   0  0  0  0  0  0  0  0  0  0  0  0
    0.9865   -1.7504    6.3701 C   0  0  0  0  0  0  0  0  0  0  0  0
   -0.3429   -1.3237    6.6426 C   0  0  0  0  0  0  0  0  0  0  0  0
   -1.4120   -2.2215    6.5448 C   0  0  0  0  0  0  0  0  0  0  0  0
   -2.7861   -1.7858    6.8198 C   0  0  0  0  0  0  0  0  0  0  0  0
   -3.0494   -0.6491    7.1748 O   0  0  0  0  0  0  0  0  0  0  0  0
   -3.8642   -2.8323    6.6548 C   0  0  0  0  0  0  0  0  0  0  0  0
   -5.0213   -2.5170    6.4215 O   0  0  0  0  0  0  0  0  0  0  0  0
   -3.3733   -4.2465    6.8368 C   0  0  1  0  0  0  0  0  0  0  0  0
   -2.1451   -4.5148    6.1366 O   0  0  0  0  0  0  0  0  0  0  0  0
   -1.1814   -3.5419    6.1950 C   0  0  0  0  0  0  0  0  0  0  0  0
    0.1260   -3.9354    5.8860 C   0  0  0  0  0  0  0  0  0  0  0  0
    0.3385   -5.2424    5.5016 O   0  0  0  0  0  0  0  0  0  0  0  0
   -3.2587   -4.6183    8.2910 C   0  0  1  0  0  0  0  0  0  0  0  0
   -2.3666   -3.8224    9.1011 O   0  0  0  0  0  0  0  0  0  0  0  0
   -4.4875   -4.9589    8.9438 O   0  0  0  0  0  0  0  0  0  0  0  0
   -3.5977   -5.9441    8.7729 C   0  0  0  0  0  0  0  0  0  0  0  0
   -3.7011   -7.0252    8.2260 O   0  0  0  0  0  0  0  0  0  0  0  0
    2.1516    1.8427    2.4242 C   0  0  0  0  0  0  0  0  0  0  0  0
    1.4844    2.4381    1.5929 O   0  0  0  0  0  0  0  0  0  0  0  0
    2.9051    0.5901    2.0917 C   0  0  0  0  0  0  0  0  0  0  0  0
    2.4033   -0.2550    1.3695 O   0  0  0  0  0  0  0  0  0  0  0  0
    4.2831    0.4186    2.6962 C   0  0  0  0  0  0  0  0  0  0  0  0
    5.0072   -0.5109    2.3780 O   0  0  0  0  0  0  0  0  0  0  0  0
  1  2  1  0  0  0  0
  2  3  2  0  0  0  0
  3  4  1  0  0  0  0
  3 51  1  0  0  0  0
  4  5  1  0  0  0  0
  5  6  1  1  0  0  0
  5 47  1  0  0  0  0
  6  7  1  0  0  0  0
  7  8  2  0  0  0  0
  7 12  1  0  0  0  0
  8  9  1  0  0  0  0
  8 25  1  0  0  0  0
  9 10  1  0  0  0  0
 10 11  2  0  0  0  0
 10 21  1  0  0  0  0
 11 12  1  0  0  0  0
 11 13  1  0  0  0  0
 13 14  1  0  0  0  0
 13 19  1  0  0  0  0
 14 15  1  0  0  0  0
 15 16  2  0  0  0  0
 15 17  1  0  0  0  0
 17 18  1  0  0  0  0
 18 19  1  0  0  0  0
 19 20  2  0  0  0  0
 20 21  1  0  0  0  0
 20 22  1  0  0  0  0
 22 23  1  0  0  0  0
 22 24  1  0  0  0  0
 23 24  1  0  0  0  0
 25 26  2  0  0  0  0
 25 30  1  0  0  0  0
 26 27  1  0  0  0  0
 27 28  2  0  0  0  0
 28 29  1  0  0  0  0
 29 30  2  0  0  0  0
 29 40  1  0  0  0  0
 30 31  1  0  0  0  0
 31 32  2  0  0  0  0
 32 33  1  0  0  0  0
 32 39  1  0  0  0  0
 33 34  2  0  0  0  0
 33 35  1  0  0  0  0
 35 36  2  0  0  0  0
 37 35  1  1  0  0  0
 37 38  1  0  0  0  0
 37 42  1  0  0  0  0
 38 39  1  0  0  0  0
 39 40  2  0  0  0  0
 40 41  1  0  0  0  0
 42 43  1  1  0  0  0
 42 44  1  0  0  0  0
 42 45  1  0  0  0  0
 44 45  1  0  0  0  0
 45 46  2  0  0  0  0
 47 48  2  0  0  0  0
 47 49  1  0  0  0  0
 49 50  2  0  0  0  0
 49 51  1  0  0  0  0
 51 52  2  0  0  0  0
M  END
$$$$