
 OpenBabel12062000343D

 55 63  0  0  1  0  0  0  0  0999 V2000
    5.6161   -2.5031   -4.4101 O   0  0  0  0  0  0  0  0  0  0  0  0
    5.9265   -1.7064   -3.3344 C   0  0  0  0  0  0  0  0  0  0  0  0
    5.2409   -1.7290   -2.1853 C   0  0  0  0  0  0  0  0  0  0  0  0
    4.1372   -2.5449   -2.0184 O   0  0  0  0  0  0  0  0  0  0  0  0
    4.1374   -3.2030   -0.7485 C   0  0  2  0  0  0  0  0  0  0  0  0
    3.1254   -4.2266   -0.6765 O   0  0  0  0  0  0  0  0  0  0  0  0
    3.2300   -5.3215   -1.5296 C   0  0  0  0  0  0  0  0  0  0  0  0
    2.7540   -6.5357   -1.1691 C   0  0  0  0  0  0  0  0  0  0  0  0
    2.7681   -7.6374   -2.0315 O   0  0  0  0  0  0  0  0  0  0  0  0
    3.3531   -7.5257   -3.2913 C   0  0  0  0  0  0  0  0  0  0  0  0
    3.8676   -6.3615   -3.7224 C   0  0  0  0  0  0  0  0  0  0  0  0
    3.8101   -5.1121   -2.9022 C   0  0  0  0  0  0  0  0  0  0  0  0
    4.5505   -6.2262   -5.0518 C   0  0  3  0  0  0  0  0  0  0  0  0
    5.9152   -5.9358   -4.8003 O   0  0  0  0  0  0  0  0  0  0  0  0
    6.7245   -5.7852   -5.8809 C   0  0  0  0  0  0  0  0  0  0  0  0
    7.8044   -5.2231   -5.8004 O   0  0  0  0  0  0  0  0  0  0  0  0
    6.2512   -6.2917   -7.0457 O   0  0  0  0  0  0  0  0  0  0  0  0
    5.2623   -7.3147   -7.0931 C   0  0  3  0  0  0  0  0  0  0  0  0
    4.5491   -7.4986   -5.8028 C   0  0  0  0  0  0  0  0  0  0  0  0
    3.9930   -8.6357   -5.3287 C   0  0  0  0  0  0  0  0  0  0  0  0
    3.3976   -8.6558   -4.0749 O   0  3  0  0  0  0  0  0  0  0  0  0
    3.9901   -9.9109   -6.0807 C   0  0  0  0  0  0  0  0  0  0  0  0
    5.0632  -10.8509   -5.9440 O   0  0  0  0  0  0  0  0  0  0  0  0
    3.7614  -11.1605   -5.4090 O   0  0  0  0  0  0  0  0  0  0  0  0
    4.2598   -6.9285   -8.0120 O   0  0  0  0  0  0  0  0  0  0  0  0
    2.1822   -6.8342    0.1589 C   0  0  0  0  0  0  0  0  0  0  0  0
    3.0055   -6.6510    1.2114 C   0  0  0  0  0  0  0  0  0  0  0  0
    2.4774   -6.8827    2.5250 N   0  3  0  0  0  0  0  0  0  0  0  0
    3.2362   -6.6780    3.4550 O   0  0  0  0  0  0  0  0  0  0  0  0
    1.1405   -7.2980    2.7352 N   0  3  0  0  0  0  0  0  0  0  0  0
    0.7009   -7.4057    3.8642 O   0  0  0  0  0  0  0  0  0  0  0  0
    0.2716   -7.5375    1.6098 C   0  0  0  0  0  0  0  0  0  0  0  0
    0.7909   -7.3121    0.3808 C   0  0  0  0  0  0  0  0  0  0  0  0
   -0.0778   -7.5055   -0.8459 C   0  0  0  0  0  0  0  0  0  0  0  0
   -1.5419   -7.4823   -0.5430 C   0  0  0  0  0  0  0  0  0  0  0  0
   -2.0731   -7.6651    0.6709 C   0  0  0  0  0  0  0  0  0  0  0  0
   -1.1329   -7.9830    1.7919 C   0  0  0  0  0  0  0  0  0  0  0  0
   -1.5273   -8.5870    2.7776 O   0  0  0  0  0  0  0  0  0  0  0  0
   -3.4154   -7.6034    0.9638 O   0  0  0  0  0  0  0  0  0  0  0  0
   -4.2243   -6.8058    0.0859 C   0  0  2  0  0  0  0  0  0  0  0  0
   -3.9152   -7.0437   -1.3749 C   0  0  0  0  0  0  0  0  0  0  0  0
   -4.7444   -7.0612   -2.2719 O   0  0  0  0  0  0  0  0  0  0  0  0
   -2.4451   -7.2385   -1.6834 C   0  0  0  0  0  0  0  0  0  0  0  0
   -2.0070   -7.2069   -2.8247 O   0  0  0  0  0  0  0  0  0  0  0  0
   -4.1885   -5.3640    0.5202 C   0  0  1  0  0  0  0  0  0  0  0  0
   -4.6917   -5.0941    1.8432 O   0  0  0  0  0  0  0  0  0  0  0  0
   -2.9940   -4.6472    0.2142 O   0  0  0  0  0  0  0  0  0  0  0  0
   -4.1232   -4.2364   -0.4096 C   0  0  0  0  0  0  0  0  0  0  0  0
   -4.3129   -4.1285   -1.5955 O   0  0  0  0  0  0  0  0  0  0  0  0
    3.8957   -2.1542    0.3320 C   0  0  0  0  0  0  0  0  0  0  0  0
    3.1833   -2.2995    1.3138 O   0  0  0  0  0  0  0  0  0  0  0  0
    4.6929   -0.8829    0.1008 C   0  0  0  0  0  0  0  0  0  0  0  0
    4.5426    0.0949    0.8127 O   0  0  0  0  0  0  0  0  0  0  0  0
    5.6637   -0.8453   -1.0656 C   0  0  0  0  0  0  0  0  0  0  0  0
    6.7044   -0.2155   -1.0378 O   0  0  0  0  0  0  0  0  0  0  0  0
  1  2  1  0  0  0  0
  2  3  2  0  0  0  0
  3  4  1  0  0  0  0
  3 54  1  0  0  0  0
  4  5  1  0  0  0  0
  5  6  1  6  0  0  0
  5 50  1  0  0  0  0
  6  7  1  0  0  0  0
  7  8  2  0  0  0  0
  7 12  1  0  0  0  0
  8  9  1  0  0  0  0
  8 26  1  0  0  0  0
  9 10  1  0  0  0  0
 10 11  2  0  0  0  0
 10 21  1  0  0  0  0
 11 12  1  0  0  0  0
 11 13  1  0  0  0  0
 13 14  1  0  0  0  0
 13 19  1  0  0  0  0
 14 15  1  0  0  0  0
 15 16  2  0  0  0  0
 15 17  1  0  0  0  0
 17 18  1  0  0  0  0
 18 19  1  0  0  0  0
 18 25  1  0  0  0  0
 19 20  2  0  0  0  0
 20 21  1  0  0  0  0
 20 22  1  0  0  0  0
 22 23  1  0  0  0  0
 22 24  1  0  0  0  0
 23 24  1  0  0  0  0
 26 27  2  0  0  0  0
 26 33  1  0  0  0  0
 27 28  1  0  0  0  0
 28 29  2  0  0  0  0
 28 30  1  0  0  0  0
 30 31  2  0  0  0  0
 30 32  1  0  0  0  0
 32 33  2  0  0  0  0
 32 37  1  0  0  0  0
 33 34  1  0  0  0  0
 34 35  1  0  0  0  0
 35 36  2  0  0  0  0
 35 43  1  0  0  0  0
 36 37  1  0  0  0  0
 36 39  1  0  0  0  0
 37 38  2  0  0  0  0
 40 39  1  1  0  0  0
 40 41  1  0  0  0  0
 40 45  1  0  0  0  0
 41 42  2  0  0  0  0
 41 43  1  0  0  0  0
 43 44  2  0  0  0  0
 45 46  1  1  0  0  0
 45 47  1  0  0  0  0
 45 48  1  0  0  0  0
 47 48  1  0  0  0  0
 48 49  2  0  0  0  0
 50 51  2  0  0  0  0
 50 52  1  0  0  0  0
 52 53  2  0  0  0  0
 52 54  1  0  0  0  0
 54 55  2  0  0  0  0
M  CHG  3  21   1  28   1  30   1
M  END
$$$$