
 OpenBabel11222000123D

 54 62  0  0  1  0  0  0  0  0999 V2000
   -0.2089    3.0859   -4.9206 O   0  0  0  0  0  0  0  0  0  0  0  0
    0.1296    2.7130   -3.6434 C   0  0  0  0  0  0  0  0  0  0  0  0
    0.5092    1.4706   -3.3240 C   0  0  0  0  0  0  0  0  0  0  0  0
    0.5392    0.4701   -4.2827 O   0  0  0  0  0  0  0  0  0  0  0  0
    1.4879   -0.5537   -4.0109 C   0  0  2  0  0  0  0  0  0  0  0  0
    1.5269   -1.5314   -5.0704 O   0  0  0  0  0  0  0  0  0  0  0  0
    2.0125   -1.1816   -6.3197 C   0  0  0  0  0  0  0  0  0  0  0  0
    1.9675   -2.0617   -7.3488 C   0  0  0  0  0  0  0  0  0  0  0  0
    2.3915   -1.6882   -8.6374 O   0  0  0  0  0  0  0  0  0  0  0  0
    2.5418   -0.3344   -8.9541 C   0  0  0  0  0  0  0  0  0  0  0  0
    2.6609    0.5799   -7.9763 C   0  0  0  0  0  0  0  0  0  0  0  0
    2.5921    0.1985   -6.5302 C   0  0  0  0  0  0  0  0  0  0  0  0
    2.7860    2.0471   -8.2629 C   0  0  3  0  0  0  0  0  0  0  0  0
    4.0149    2.5071   -7.7357 O   0  0  0  0  0  0  0  0  0  0  0  0
    4.2013    3.8548   -7.8373 C   0  0  0  0  0  0  0  0  0  0  0  0
    4.9871    4.4531   -7.1238 O   0  0  0  0  0  0  0  0  0  0  0  0
    3.4044    4.4689   -8.7497 O   0  0  0  0  0  0  0  0  0  0  0  0
    3.0755    3.7760   -9.9486 C   0  0  3  0  0  0  0  0  0  0  0  0
    2.8374    2.3239   -9.7142 C   0  0  0  0  0  0  0  0  0  0  0  0
    2.7051    1.3622  -10.6558 C   0  0  0  0  0  0  0  0  0  0  0  0
    2.5514    0.0318  -10.2859 O   0  3  0  0  0  0  0  0  0  0  0  0
    2.7410    1.6359  -12.1116 C   0  0  0  0  0  0  0  0  0  0  0  0
    3.9764    1.5924  -12.8362 O   0  0  0  0  0  0  0  0  0  0  0  0
    2.9826    0.5706  -13.0465 O   0  0  0  0  0  0  0  0  0  0  0  0
    1.8410    4.2707  -10.4291 O   0  0  0  0  0  0  0  0  0  0  0  0
    1.5006   -3.4895   -7.2244 C   0  0  0  0  0  0  0  0  0  0  0  0
    1.7348   -4.1905   -6.0371 C   0  0  0  0  0  0  0  0  0  0  0  0
    1.3680   -5.4681   -5.8943 N   0  3  0  0  0  0  0  0  0  0  0  0
    1.5856   -6.0827   -4.7151 F   0  0  0  0  0  0  0  0  0  0  0  0
    0.8225   -6.1636   -6.8716 N   0  0  0  0  0  0  0  0  0  0  0  0
    0.5846   -5.5803   -8.0474 C   0  0  0  0  0  0  0  0  0  0  0  0
    0.8815   -4.2198   -8.2737 C   0  0  0  0  0  0  0  0  0  0  0  0
    0.5453   -3.6865   -9.5389 C   0  0  0  0  0  0  0  0  0  0  0  0
    0.0323   -4.4822  -10.5680 C   0  0  0  0  0  0  0  0  0  0  0  0
   -0.1406   -3.9039  -11.9028 C   0  0  0  0  0  0  0  0  0  0  0  0
    0.2893   -2.7806  -12.1350 O   0  0  0  0  0  0  0  0  0  0  0  0
   -0.7814   -4.7978  -12.9456 C   0  0  0  0  0  0  0  0  0  0  0  0
   -0.7014   -4.5154  -14.1307 O   0  0  0  0  0  0  0  0  0  0  0  0
   -1.5015   -6.0026  -12.3711 C   0  0  1  0  0  0  0  0  0  0  0  0
   -0.7902   -6.6377  -11.2925 O   0  0  0  0  0  0  0  0  0  0  0  0
   -0.2560   -5.8113  -10.3457 C   0  0  0  0  0  0  0  0  0  0  0  0
    0.0274   -6.3389   -9.0849 C   0  0  0  0  0  0  0  0  0  0  0  0
   -0.2413   -7.6342   -8.8565 F   0  0  0  0  0  0  0  0  0  0  0  0
   -2.8830   -5.6401  -11.9289 C   0  0  1  0  0  0  0  0  0  0  0  0
   -2.9932   -4.5991  -10.9183 O   0  0  0  0  0  0  0  0  0  0  0  0
   -3.8709   -5.6216  -12.9493 O   0  0  0  0  0  0  0  0  0  0  0  0
   -4.0256   -6.5664  -11.9899 C   0  0  0  0  0  0  0  0  0  0  0  0
   -4.8971   -6.7043  -11.1736 O   0  0  0  0  0  0  0  0  0  0  0  0
    1.0685   -1.2761   -2.7464 C   0  0  0  0  0  0  0  0  0  0  0  0
    0.9108   -2.4849   -2.6455 O   0  0  0  0  0  0  0  0  0  0  0  0
    0.9091   -0.3081   -1.5921 C   0  0  0  0  0  0  0  0  0  0  0  0
    0.9242   -0.6863   -0.4341 O   0  0  0  0  0  0  0  0  0  0  0  0
    0.8319    1.1722   -1.8985 C   0  0  0  0  0  0  0  0  0  0  0  0
    1.0861    2.0615   -0.9963 N   0  0  0  0  0  0  0  0  0  0  0  0
  1  2  1  0  0  0  0
  2  3  2  0  0  0  0
  3  4  1  0  0  0  0
  3 53  1  0  0  0  0
  4  5  1  0  0  0  0
  5  6  1  6  0  0  0
  5 49  1  0  0  0  0
  6  7  1  0  0  0  0
  7  8  2  0  0  0  0
  7 12  1  0  0  0  0
  8  9  1  0  0  0  0
  8 26  1  0  0  0  0
  9 10  1  0  0  0  0
 10 11  2  0  0  0  0
 10 21  1  0  0  0  0
 11 12  1  0  0  0  0
 11 13  1  0  0  0  0
 13 14  1  0  0  0  0
 13 19  1  0  0  0  0
 14 15  1  0  0  0  0
 15 16  2  0  0  0  0
 15 17  1  0  0  0  0
 17 18  1  0  0  0  0
 18 19  1  0  0  0  0
 18 25  1  0  0  0  0
 19 20  2  0  0  0  0
 20 21  1  0  0  0  0
 20 22  1  0  0  0  0
 22 23  1  0  0  0  0
 22 24  1  0  0  0  0
 23 24  1  0  0  0  0
 26 27  2  0  0  0  0
 26 32  1  0  0  0  0
 27 28  1  0  0  0  0
 28 29  1  0  0  0  0
 28 30  2  0  0  0  0
 30 31  1  0  0  0  0
 31 32  2  0  0  0  0
 31 42  1  0  0  0  0
 32 33  1  0  0  0  0
 33 34  2  0  0  0  0
 34 35  1  0  0  0  0
 34 41  1  0  0  0  0
 35 36  2  0  0  0  0
 35 37  1  0  0  0  0
 37 38  2  0  0  0  0
 39 37  1  1  0  0  0
 39 40  1  0  0  0  0
 39 44  1  0  0  0  0
 40 41  1  0  0  0  0
 41 42  2  0  0  0  0
 42 43  1  0  0  0  0
 44 45  1  1  0  0  0
 44 46  1  0  0  0  0
 44 47  1  0  0  0  0
 46 47  1  0  0  0  0
 47 48  2  0  0  0  0
 49 50  2  0  0  0  0
 49 51  1  0  0  0  0
 51 52  2  0  0  0  0
 51 53  1  0  0  0  0
 53 54  2  0  0  0  0
M  CHG  2  21   1  28   1
M  END
$$$$