
 OpenBabel11212016133D

 54 62  0  0  1  0  0  0  0  0999 V2000
    5.6852   -4.7307   -1.4711 O   0  0  0  0  0  0  0  0  0  0  0  0
    5.4944   -3.4948   -0.9048 C   0  0  0  0  0  0  0  0  0  0  0  0
    4.3746   -3.1577   -0.2532 C   0  0  0  0  0  0  0  0  0  0  0  0
    3.3090   -4.0318   -0.1605 O   0  0  0  0  0  0  0  0  0  0  0  0
    2.7394   -4.0972    1.1431 C   0  0  2  0  0  0  0  0  0  0  0  0
    1.6766   -5.0673    1.2275 O   0  0  0  0  0  0  0  0  0  0  0  0
    1.9295   -6.4068    0.9848 C   0  0  0  0  0  0  0  0  0  0  0  0
    1.1942   -7.3644    1.5894 C   0  0  0  0  0  0  0  0  0  0  0  0
    1.3340   -8.7222    1.3218 O   0  0  0  0  0  0  0  0  0  0  0  0
    2.2396   -9.1384    0.3536 C   0  0  0  0  0  0  0  0  0  0  0  0
    3.0329   -8.2640   -0.2919 C   0  0  0  0  0  0  0  0  0  0  0  0
    2.9745   -6.7860   -0.0294 C   0  0  0  0  0  0  0  0  0  0  0  0
    3.9985   -8.7031   -1.3530 C   0  0  3  0  0  0  0  0  0  0  0  0
    5.3082   -8.3274   -0.9623 O   0  0  0  0  0  0  0  0  0  0  0  0
    6.2695   -8.5656   -1.8973 C   0  0  0  0  0  0  0  0  0  0  0  0
    7.3435   -7.9895   -1.8901 O   0  0  0  0  0  0  0  0  0  0  0  0
    5.9159   -9.4685   -2.8492 O   0  0  0  0  0  0  0  0  0  0  0  0
    5.1036  -10.5697   -2.4604 C   0  0  3  0  0  0  0  0  0  0  0  0
    4.0404  -10.1791   -1.4915 C   0  0  0  0  0  0  0  0  0  0  0  0
    3.2250  -11.0063   -0.7971 C   0  0  0  0  0  0  0  0  0  0  0  0
    2.2941  -10.4843    0.0885 O   0  3  0  0  0  0  0  0  0  0  0  0
    3.2255  -12.4845   -0.9232 C   0  0  0  0  0  0  0  0  0  0  0  0
    2.3262  -13.2783   -0.1249 O   0  0  0  0  0  0  0  0  0  0  0  0
    2.1339  -13.1722   -1.5476 O   0  0  0  0  0  0  0  0  0  0  0  0
    4.4153  -11.0482   -3.5966 O   0  0  0  0  0  0  0  0  0  0  0  0
    0.2333   -7.0620    2.6688 C   0  0  0  0  0  0  0  0  0  0  0  0
    0.7405   -7.0724    3.9683 C   0  0  0  0  0  0  0  0  0  0  0  0
   -0.1098   -6.7632    5.0036 C   0  0  0  0  0  0  0  0  0  0  0  0
    0.3706   -6.8057    6.2529 F   0  0  0  0  0  0  0  0  0  0  0  0
   -1.3988   -6.4309    4.8382 N   0  0  0  0  0  0  0  0  0  0  0  0
   -1.9079   -6.3989    3.5939 C   0  0  0  0  0  0  0  0  0  0  0  0
   -1.1332   -6.7432    2.4586 C   0  0  0  0  0  0  0  0  0  0  0  0
   -1.7609   -6.7708    1.1930 C   0  0  0  0  0  0  0  0  0  0  0  0
   -3.1151   -6.4410    1.0561 C   0  0  0  0  0  0  0  0  0  0  0  0
   -3.7872   -6.6171   -0.2345 C   0  0  0  0  0  0  0  0  0  0  0  0
   -3.1842   -6.9735   -1.2339 O   0  0  0  0  0  0  0  0  0  0  0  0
   -5.2831   -6.4161   -0.2254 C   0  0  0  0  0  0  0  0  0  0  0  0
   -6.0028   -7.0685   -0.9661 O   0  0  0  0  0  0  0  0  0  0  0  0
   -5.7517   -5.4179    0.7991 C   0  0  1  0  0  0  0  0  0  0  0  0
   -5.1624   -5.6232    2.0918 O   0  0  0  0  0  0  0  0  0  0  0  0
   -3.8548   -6.0182    2.1469 C   0  0  0  0  0  0  0  0  0  0  0  0
   -3.2422   -6.0251    3.4019 C   0  0  0  0  0  0  0  0  0  0  0  0
   -3.9807   -5.6734    4.4692 F   0  0  0  0  0  0  0  0  0  0  0  0
   -5.5478   -4.0035    0.3459 C   0  0  1  0  0  0  0  0  0  0  0  0
   -4.1968   -3.5905    0.0467 O   0  0  0  0  0  0  0  0  0  0  0  0
   -6.5148   -3.4867   -0.5726 O   0  0  0  0  0  0  0  0  0  0  0  0
   -6.5331   -2.9792    0.6769 C   0  0  0  0  0  0  0  0  0  0  0  0
   -7.4285   -2.9426    1.4865 O   0  0  0  0  0  0  0  0  0  0  0  0
    2.1341   -2.7453    1.4964 C   0  0  0  0  0  0  0  0  0  0  0  0
    1.0298   -2.5671    1.9908 O   0  0  0  0  0  0  0  0  0  0  0  0
    3.0490   -1.5806    1.1935 C   0  0  0  0  0  0  0  0  0  0  0  0
    2.8058   -0.4770    1.6554 O   0  0  0  0  0  0  0  0  0  0  0  0
    4.2844   -1.7970    0.3434 C   0  0  0  0  0  0  0  0  0  0  0  0
    5.1346   -0.9349    0.2025 O   0  0  0  0  0  0  0  0  0  0  0  0
  1  2  1  0  0  0  0
  2  3  2  0  0  0  0
  3  4  1  0  0  0  0
  3 53  1  0  0  0  0
  4  5  1  0  0  0  0
  5  6  1  6  0  0  0
  5 49  1  0  0  0  0
  6  7  1  0  0  0  0
  7  8  2  0  0  0  0
  7 12  1  0  0  0  0
  8  9  1  0  0  0  0
  8 26  1  0  0  0  0
  9 10  1  0  0  0  0
 10 11  2  0  0  0  0
 10 21  1  0  0  0  0
 11 12  1  0  0  0  0
 11 13  1  0  0  0  0
 13 14  1  0  0  0  0
 13 19  1  0  0  0  0
 14 15  1  0  0  0  0
 15 16  2  0  0  0  0
 15 17  1  0  0  0  0
 17 18  1  0  0  0  0
 18 19  1  0  0  0  0
 18 25  1  0  0  0  0
 19 20  2  0  0  0  0
 20 21  1  0  0  0  0
 20 22  1  0  0  0  0
 22 23  1  0  0  0  0
 22 24  1  0  0  0  0
 23 24  1  0  0  0  0
 26 27  2  0  0  0  0
 26 32  1  0  0  0  0
 27 28  1  0  0  0  0
 28 29  1  0  0  0  0
 28 30  2  0  0  0  0
 30 31  1  0  0  0  0
 31 32  2  0  0  0  0
 31 42  1  0  0  0  0
 32 33  1  0  0  0  0
 33 34  2  0  0  0  0
 34 35  1  0  0  0  0
 34 41  1  0  0  0  0
 35 36  2  0  0  0  0
 35 37  1  0  0  0  0
 37 38  2  0  0  0  0
 39 37  1  6  0  0  0
 39 40  1  0  0  0  0
 39 44  1  0  0  0  0
 40 41  1  0  0  0  0
 41 42  2  0  0  0  0
 42 43  1  0  0  0  0
 44 45  1  6  0  0  0
 44 46  1  0  0  0  0
 44 47  1  0  0  0  0
 46 47  1  0  0  0  0
 47 48  2  0  0  0  0
 49 50  2  0  0  0  0
 49 51  1  0  0  0  0
 51 52  2  0  0  0  0
 51 53  1  0  0  0  0
 53 54  2  0  0  0  0
M  CHG  1  21   1
M  END
$$$$