
 OpenBabel10242013313D

 51 58  0  0  1  0  0  0  0  0999 V2000
    6.9231   -7.3382    0.8155 O   0  0  0  0  0  0  0  0  0  0  0  0
    6.5376   -6.3662    1.7027 C   0  0  0  0  0  0  0  0  0  0  0  0
    5.6160   -5.4400    1.4079 C   0  0  0  0  0  0  0  0  0  0  0  0
    5.0501   -5.3824    0.1504 O   0  0  0  0  0  0  0  0  0  0  0  0
    3.7123   -4.8954    0.0331 C   0  0  2  0  0  0  0  0  0  0  0  0
    3.3108   -4.8179   -1.3500 O   0  0  0  0  0  0  0  0  0  0  0  0
    3.2817   -5.9971   -2.0973 C   0  0  0  0  0  0  0  0  0  0  0  0
    2.9580   -5.9962   -3.4137 C   0  0  0  0  0  0  0  0  0  0  0  0
    2.9580   -7.1533   -4.2009 O   0  0  0  0  0  0  0  0  0  0  0  0
    3.2106   -8.3838   -3.6104 C   0  0  0  0  0  0  0  0  0  0  0  0
    3.4844   -8.4887   -2.3040 C   0  0  0  0  0  0  0  0  0  0  0  0
    3.6085   -7.3073   -1.4140 C   0  0  0  0  0  0  0  0  0  0  0  0
    3.7027   -9.8422   -1.7170 C   0  0  0  0  0  0  0  0  0  0  0  0
    3.9270   -9.9642   -0.4492 N   0  0  0  0  0  0  0  0  0  0  0  0
    4.1197  -11.2193    0.0867 C   0  0  0  0  0  0  0  0  0  0  0  0
    4.2922  -11.3087    1.2956 O   0  0  0  0  0  0  0  0  0  0  0  0
    4.1280  -12.3708   -0.6698 N   0  0  0  0  0  0  0  0  0  0  0  0
    3.9062  -12.2838   -1.9374 C   0  0  0  0  0  0  0  0  0  0  0  0
    3.6503  -11.0133   -2.6265 C   0  0  0  0  0  0  0  0  0  0  0  0
    3.4048  -10.7828   -3.9296 C   0  0  0  0  0  0  0  0  0  0  0  0
    3.1783   -9.4973   -4.4059 N   0  0  0  0  0  0  0  0  0  0  0  0
    3.3737  -11.8984   -4.9170 C   0  0  0  0  0  0  0  0  0  0  0  0
    3.2448  -13.0856   -4.6942 O   0  0  0  0  0  0  0  0  0  0  0  0
    3.5165  -11.4311   -6.1735 O   0  0  0  0  0  0  0  0  0  0  0  0
    2.5381   -4.7938   -4.1676 C   0  0  0  0  0  0  0  0  0  0  0  0
    1.2075   -4.5557   -4.1271 N   0  0  0  0  0  0  0  0  0  0  0  0
    0.7754   -3.5039   -4.8301 C   0  0  0  0  0  0  0  0  0  0  0  0
    1.5342   -2.6709   -5.5538 N   0  0  0  0  0  0  0  0  0  0  0  0
    2.8433   -2.9251   -5.5962 C   0  0  0  0  0  0  0  0  0  0  0  0
    3.4281   -4.0153   -4.9293 C   0  0  0  0  0  0  0  0  0  0  0  0
    4.8129   -4.2609   -5.0943 C   0  0  0  0  0  0  0  0  0  0  0  0
    5.5870   -3.4185   -5.8981 C   0  0  0  0  0  0  0  0  0  0  0  0
    5.0224   -2.2943   -6.4873 C   0  0  0  0  0  0  0  0  0  0  0  0
    3.6517   -2.0751   -6.3459 C   0  0  0  0  0  0  0  0  0  0  0  0
    5.7107   -1.3677   -7.2236 O   0  0  0  0  0  0  0  0  0  0  0  0
    7.1427   -1.4087   -7.1323 C   0  0  2  0  0  0  0  0  0  0  0  0
    7.7051   -2.8081   -7.1242 C   0  0  0  0  0  0  0  0  0  0  0  0
    8.6426   -3.1885   -7.8100 O   0  0  0  0  0  0  0  0  0  0  0  0
    6.9934   -3.7404   -6.1721 C   0  0  0  0  0  0  0  0  0  0  0  0
    7.5467   -4.7207   -5.7026 O   0  0  0  0  0  0  0  0  0  0  0  0
    7.6304   -0.6287   -5.9521 C   0  0  1  0  0  0  0  0  0  0  0  0
    7.2126   -1.0960   -4.6461 O   0  0  0  0  0  0  0  0  0  0  0  0
    8.9954   -0.2146   -6.0486 O   0  0  0  0  0  0  0  0  0  0  0  0
    8.0698    0.7650   -6.0110 C   0  0  0  0  0  0  0  0  0  0  0  0
    7.9263    1.6589   -5.2100 O   0  0  0  0  0  0  0  0  0  0  0  0
    3.6209   -3.5267    0.6877 C   0  0  0  0  0  0  0  0  0  0  0  0
    3.2122   -2.4891    0.1911 O   0  0  0  0  0  0  0  0  0  0  0  0
    4.1119   -3.5599    2.1091 C   0  0  0  0  0  0  0  0  0  0  0  0
    3.5011   -2.9702    2.9862 O   0  0  0  0  0  0  0  0  0  0  0  0
    5.3117   -4.4151    2.4407 C   0  0  0  0  0  0  0  0  0  0  0  0
    5.9586   -4.2499    3.4616 O   0  0  0  0  0  0  0  0  0  0  0  0
  1  2  1  0  0  0  0
  2  3  2  0  0  0  0
  3  4  1  0  0  0  0
  3 50  1  0  0  0  0
  4  5  1  0  0  0  0
  5  6  1  6  0  0  0
  5 46  1  0  0  0  0
  6  7  1  0  0  0  0
  7  8  2  0  0  0  0
  7 12  1  0  0  0  0
  8  9  1  0  0  0  0
  8 25  1  0  0  0  0
  9 10  1  0  0  0  0
 10 11  2  0  0  0  0
 10 21  1  0  0  0  0
 11 12  1  0  0  0  0
 11 13  1  0  0  0  0
 13 14  2  0  0  0  0
 13 19  1  0  0  0  0
 14 15  1  0  0  0  0
 15 16  2  0  0  0  0
 15 17  1  0  0  0  0
 17 18  2  0  0  0  0
 18 19  1  0  0  0  0
 19 20  2  0  0  0  0
 20 21  1  0  0  0  0
 20 22  1  0  0  0  0
 22 23  2  0  0  0  0
 22 24  1  0  0  0  0
 25 26  2  0  0  0  0
 25 30  1  0  0  0  0
 26 27  1  0  0  0  0
 27 28  2  0  0  0  0
 28 29  1  0  0  0  0
 29 30  2  0  0  0  0
 29 34  1  0  0  0  0
 30 31  1  0  0  0  0
 31 32  2  0  0  0  0
 32 33  1  0  0  0  0
 32 39  1  0  0  0  0
 33 34  2  0  0  0  0
 33 35  1  0  0  0  0
 36 35  1  1  0  0  0
 36 37  1  0  0  0  0
 36 41  1  0  0  0  0
 37 38  2  0  0  0  0
 37 39  1  0  0  0  0
 39 40  2  0  0  0  0
 41 42  1  1  0  0  0
 41 43  1  0  0  0  0
 41 44  1  0  0  0  0
 43 44  1  0  0  0  0
 44 45  2  0  0  0  0
 46 47  2  0  0  0  0
 46 48  1  0  0  0  0
 48 49  2  0  0  0  0
 48 50  1  0  0  0  0
 50 51  2  0  0  0  0
M  END
$$$$