
 OpenBabel11252023363D

 53 61  0  0  1  0  0  0  0  0999 V2000
   -1.8938    1.2757   -5.0300 O   0  0  0  0  0  0  0  0  0  0  0  0
   -1.6643    1.1367   -3.6822 C   0  0  0  0  0  0  0  0  0  0  0  0
   -0.7644    0.2761   -3.1952 C   0  0  0  0  0  0  0  0  0  0  0  0
   -0.0486   -0.5401   -4.0609 O   0  0  0  0  0  0  0  0  0  0  0  0
    1.2933   -0.7457   -3.6364 C   0  0  2  0  0  0  0  0  0  0  0  0
    2.0058   -1.5388   -4.6195 O   0  0  0  0  0  0  0  0  0  0  0  0
    2.0394   -1.0625   -5.9191 C   0  0  0  0  0  0  0  0  0  0  0  0
    2.1058   -1.9328   -6.9441 C   0  0  0  0  0  0  0  0  0  0  0  0
    2.1896   -1.5276   -8.2819 O   0  0  0  0  0  0  0  0  0  0  0  0
    2.2660   -0.1512   -8.5864 C   0  0  0  0  0  0  0  0  0  0  0  0
    2.2309    0.7777   -7.6096 C   0  0  0  0  0  0  0  0  0  0  0  0
    2.0800    0.4262   -6.1560 C   0  0  0  0  0  0  0  0  0  0  0  0
    2.3455    2.2557   -7.9009 C   0  0  3  0  0  0  0  0  0  0  0  0
    3.5306    2.7081   -7.2605 O   0  0  0  0  0  0  0  0  0  0  0  0
    3.8259    4.0148   -7.4316 C   0  0  0  0  0  0  0  0  0  0  0  0
    4.6453    4.6027   -6.6524 N   0  0  0  0  0  0  0  0  0  0  0  0
    3.2180    4.6661   -8.4378 O   0  0  0  0  0  0  0  0  0  0  0  0
    2.7229    3.9892   -9.6012 C   0  0  0  0  0  0  0  0  0  0  0  0
    2.5037    2.5294   -9.3536 C   0  0  0  0  0  0  0  0  0  0  0  0
    2.5247    1.5529  -10.2884 C   0  0  0  0  0  0  0  0  0  0  0  0
    2.3865    0.2201   -9.9110 O   0  3  0  0  0  0  0  0  0  0  0  0
    2.7317    1.7815  -11.7352 C   0  0  3  0  0  0  0  0  0  0  0  0
    2.6892    0.6217  -12.5695 N   0  0  0  0  0  0  0  0  0  0  0  0
    3.8141    1.0968  -12.3430 N   0  0  0  0  0  0  0  0  0  0  0  0
    2.1284   -3.4015   -6.6876 C   0  0  0  0  0  0  0  0  0  0  0  0
    3.3566   -4.0145   -6.4136 C   0  0  0  0  0  0  0  0  0  0  0  0
    3.4061   -5.3247   -6.1634 N   0  3  0  0  0  0  0  0  0  0  0  0
    4.5965   -5.9059   -5.9074 F   0  0  0  0  0  0  0  0  0  0  0  0
    2.3282   -6.0805   -6.1824 N   0  0  0  0  0  0  0  0  0  0  0  0
    1.1227   -5.5132   -6.3916 C   0  0  0  0  0  0  0  0  0  0  0  0
    0.9800   -4.1518   -6.6334 N   0  3  0  0  0  0  0  0  0  0  0  0
   -0.2659   -3.6171   -6.7737 C   0  0  0  0  0  0  0  0  0  0  0  0
   -1.4103   -4.3950   -6.6752 C   0  0  0  0  0  0  0  0  0  0  0  0
   -2.7175   -3.7707   -6.8159 C   0  0  0  0  0  0  0  0  0  0  0  0
   -2.7601   -2.6142   -7.1999 O   0  0  0  0  0  0  0  0  0  0  0  0
   -3.9328   -4.6126   -6.4901 C   0  0  0  0  0  0  0  0  0  0  0  0
   -5.0508   -4.1896   -6.7267 O   0  0  0  0  0  0  0  0  0  0  0  0
   -3.6122   -5.9318   -5.8173 C   0  0  1  0  0  0  0  0  0  0  0  0
   -2.4073   -6.5554   -6.3207 O   0  0  0  0  0  0  0  0  0  0  0  0
   -1.3104   -5.7444   -6.4483 C   0  0  0  0  0  0  0  0  0  0  0  0
   -0.0388   -6.3310   -6.3685 C   0  0  0  0  0  0  0  0  0  0  0  0
    0.0377   -7.6967   -6.0247 N   0  0  0  0  0  0  0  0  0  0  0  0
   -3.5183   -5.7704   -4.3339 C   0  0  1  0  0  0  0  0  0  0  0  0
   -2.4306   -4.9362   -3.8310 O   0  0  0  0  0  0  0  0  0  0  0  0
   -4.7435   -5.6741   -3.6322 O   0  0  0  0  0  0  0  0  0  0  0  0
   -4.0151   -6.7812   -3.3904 C   0  0  0  0  0  0  0  0  0  0  0  0
   -3.4427   -7.1500   -2.3831 O   0  0  0  0  0  0  0  0  0  0  0  0
    1.2404   -1.5622   -2.3661 C   0  0  0  0  0  0  0  0  0  0  0  0
    1.7181   -2.6831   -2.2534 O   0  0  0  0  0  0  0  0  0  0  0  0
    0.4227   -0.8848   -1.2896 C   0  0  0  0  0  0  0  0  0  0  0  0
    0.5660   -1.2130   -0.1274 O   0  0  0  0  0  0  0  0  0  0  0  0
   -0.5617    0.1984   -1.7133 C   0  0  0  0  0  0  0  0  0  0  0  0
   -1.0878    0.9503   -0.9160 O   0  0  0  0  0  0  0  0  0  0  0  0
  1  2  1  0  0  0  0
  2  3  2  0  0  0  0
  3  4  1  0  0  0  0
  3 52  1  0  0  0  0
  4  5  1  0  0  0  0
  5  6  1  6  0  0  0
  5 48  1  0  0  0  0
  6  7  1  0  0  0  0
  7  8  2  0  0  0  0
  7 12  1  0  0  0  0
  8  9  1  0  0  0  0
  8 25  1  0  0  0  0
  9 10  1  0  0  0  0
 10 11  2  0  0  0  0
 10 21  1  0  0  0  0
 11 12  1  0  0  0  0
 11 13  1  0  0  0  0
 13 14  1  0  0  0  0
 13 19  1  0  0  0  0
 14 15  1  0  0  0  0
 15 16  2  0  0  0  0
 15 17  1  0  0  0  0
 17 18  1  0  0  0  0
 18 19  1  0  0  0  0
 19 20  2  0  0  0  0
 20 21  1  0  0  0  0
 20 22  1  0  0  0  0
 22 23  1  0  0  0  0
 22 24  1  0  0  0  0
 23 24  2  0  0  0  0
 25 26  2  0  0  0  0
 25 31  1  0  0  0  0
 26 27  1  0  0  0  0
 27 28  1  0  0  0  0
 27 29  2  0  0  0  0
 29 30  1  0  0  0  0
 30 31  2  0  0  0  0
 30 41  1  0  0  0  0
 31 32  1  0  0  0  0
 32 33  2  0  0  0  0
 33 34  1  0  0  0  0
 33 40  1  0  0  0  0
 34 35  2  0  0  0  0
 34 36  1  0  0  0  0
 36 37  2  0  0  0  0
 38 36  1  6  0  0  0
 38 39  1  0  0  0  0
 38 43  1  0  0  0  0
 39 40  1  0  0  0  0
 40 41  2  0  0  0  0
 41 42  1  0  0  0  0
 43 44  1  1  0  0  0
 43 45  1  0  0  0  0
 43 46  1  0  0  0  0
 45 46  1  0  0  0  0
 46 47  2  0  0  0  0
 48 49  2  0  0  0  0
 48 50  1  0  0  0  0
 50 51  2  0  0  0  0
 50 52  1  0  0  0  0
 52 53  2  0  0  0  0
M  CHG  3  21   1  27   1  31   1
M  END
$$$$