
 OpenBabel11272000563D

 54 62  0  0  1  0  0  0  0  0999 V2000
    6.5339   -4.1512   -4.9442 F   0  0  0  0  0  0  0  0  0  0  0  0
    5.9811   -4.7940   -3.8977 C   0  0  0  0  0  0  0  0  0  0  0  0
    4.7230   -4.5557   -3.5189 C   0  0  0  0  0  0  0  0  0  0  0  0
    3.9839   -3.5971   -4.1722 O   0  0  0  0  0  0  0  0  0  0  0  0
    2.5822   -3.5523   -3.9564 C   0  0  2  0  0  0  0  0  0  0  0  0
    2.0470   -2.2873   -4.3928 O   0  0  0  0  0  0  0  0  0  0  0  0
    2.2097   -1.9448   -5.7326 C   0  0  0  0  0  0  0  0  0  0  0  0
    2.3181   -0.6580   -6.1325 C   0  0  0  0  0  0  0  0  0  0  0  0
    2.4267   -0.2622   -7.4683 O   0  0  0  0  0  0  0  0  0  0  0  0
    2.6270   -1.2300   -8.4346 C   0  0  0  0  0  0  0  0  0  0  0  0
    2.5838   -2.5684   -8.1246 C   0  0  0  0  0  0  0  0  0  0  0  0
    2.2138   -3.0373   -6.7598 C   0  0  0  0  0  0  0  0  0  0  0  0
    2.9118   -3.4607   -9.1354 C   0  0  0  0  0  0  0  0  0  0  0  0
    2.9702   -4.8191   -8.8061 O   0  0  0  0  0  0  0  0  0  0  0  0
    3.1938   -5.8267   -9.7388 C   0  0  0  0  0  0  0  0  0  0  0  0
    3.1930   -7.0032   -9.4019 O   0  0  0  0  0  0  0  0  0  0  0  0
    3.3565   -5.4342  -11.0212 O   0  0  0  0  0  0  0  0  0  0  0  0
    3.6450   -4.0866  -11.3910 C   0  0  3  0  0  0  0  0  0  0  0  0
    3.2349   -3.0473  -10.4077 C   0  0  0  0  0  0  0  0  0  0  0  0
    3.2100   -1.6726  -10.6788 C   0  0  0  0  0  0  0  0  0  0  0  0
    2.9133   -0.7821   -9.6798 N   0  0  0  0  0  0  0  0  0  0  0  0
    3.5247   -1.1336  -12.0657 C   0  0  0  0  0  0  0  0  0  0  0  0
    2.4713   -0.4398  -12.7517 O   0  0  0  0  0  0  0  0  0  0  0  0
    3.6110    0.2873  -12.2463 O   0  0  0  0  0  0  0  0  0  0  0  0
    5.0324   -3.9696  -11.6733 O   0  0  0  0  0  0  0  0  0  0  0  0
    2.3572    0.4738   -5.1814 C   0  0  0  0  0  0  0  0  0  0  0  0
    3.6096    0.7888   -4.7704 N   0  0  0  0  0  0  0  0  0  0  0  0
    3.7257    1.8114   -3.9095 C   0  0  0  0  0  0  0  0  0  0  0  0
    4.9569    2.1197   -3.4770 F   0  0  0  0  0  0  0  0  0  0  0  0
    2.6640    2.5648   -3.4474 C   0  0  0  0  0  0  0  0  0  0  0  0
    1.3602    2.2689   -3.8792 C   0  0  0  0  0  0  0  0  0  0  0  0
    1.1942    1.1696   -4.7606 C   0  0  0  0  0  0  0  0  0  0  0  0
   -0.1155    0.8212   -5.1540 C   0  0  0  0  0  0  0  0  0  0  0  0
   -1.2280    1.5220   -4.6740 C   0  0  0  0  0  0  0  0  0  0  0  0
   -2.5743    1.0711   -5.0279 C   0  0  0  0  0  0  0  0  0  0  0  0
   -2.7838    0.2282   -5.8852 O   0  0  0  0  0  0  0  0  0  0  0  0
   -3.7049    1.7040   -4.2619 C   0  0  0  0  0  0  0  0  0  0  0  0
   -4.7466    1.0958   -4.0638 O   0  0  0  0  0  0  0  0  0  0  0  0
   -3.4352    3.1237   -3.8365 C   0  0  1  0  0  0  0  0  0  0  0  0
   -2.1105    3.3859   -3.3629 O   0  0  0  0  0  0  0  0  0  0  0  0
   -1.0758    2.6213   -3.8426 C   0  0  0  0  0  0  0  0  0  0  0  0
    0.2224    3.0263   -3.4666 C   0  0  0  0  0  0  0  0  0  0  0  0
    0.3483    4.0865   -2.5333 N   0  0  0  0  0  0  0  0  0  0  0  0
   -3.8038    4.0952   -4.9244 C   0  0  1  0  0  0  0  0  0  0  0  0
   -3.1204    3.9506   -6.1874 O   0  0  0  0  0  0  0  0  0  0  0  0
   -5.2000    4.3931   -5.0484 O   0  0  0  0  0  0  0  0  0  0  0  0
   -4.4029    5.3825   -4.6236 C   0  0  0  0  0  0  0  0  0  0  0  0
   -4.4499    6.0640   -3.6150 O   0  0  0  0  0  0  0  0  0  0  0  0
    2.2008   -3.7994   -2.4936 C   0  0  0  0  0  0  0  0  0  0  0  0
    1.3615   -3.1255   -1.8942 O   0  0  0  0  0  0  0  0  0  0  0  0
    2.7951   -5.0513   -1.9001 C   0  0  3  0  0  0  0  0  0  0  0  0
    4.2052   -5.3289   -2.3516 C   0  0  0  0  0  0  0  0  0  0  0  0
    4.8965   -6.1992   -1.8206 O   0  0  0  0  0  0  0  0  0  0  0  0
    2.7088   -5.0521   -0.5348 F   0  0  0  0  0  0  0  0  0  0  0  0
  1  2  1  0  0  0  0
  2  3  2  0  0  0  0
  3  4  1  0  0  0  0
  3 52  1  0  0  0  0
  4  5  1  0  0  0  0
  5  6  1  1  0  0  0
  5 49  1  0  0  0  0
  6  7  1  0  0  0  0
  7  8  2  0  0  0  0
  7 12  1  0  0  0  0
  8  9  1  0  0  0  0
  8 26  1  0  0  0  0
  9 10  1  0  0  0  0
 10 11  2  0  0  0  0
 10 21  1  0  0  0  0
 11 12  1  0  0  0  0
 11 13  1  0  0  0  0
 13 14  1  0  0  0  0
 13 19  2  0  0  0  0
 14 15  1  0  0  0  0
 15 16  2  0  0  0  0
 15 17  1  0  0  0  0
 17 18  1  0  0  0  0
 18 19  1  0  0  0  0
 18 25  1  0  0  0  0
 19 20  1  0  0  0  0
 20 21  2  0  0  0  0
 20 22  1  0  0  0  0
 22 23  1  0  0  0  0
 22 24  1  0  0  0  0
 23 24  1  0  0  0  0
 26 27  2  0  0  0  0
 26 32  1  0  0  0  0
 27 28  1  0  0  0  0
 28 29  1  0  0  0  0
 28 30  2  0  0  0  0
 30 31  1  0  0  0  0
 31 32  2  0  0  0  0
 31 42  1  0  0  0  0
 32 33  1  0  0  0  0
 33 34  2  0  0  0  0
 34 35  1  0  0  0  0
 34 41  1  0  0  0  0
 35 36  2  0  0  0  0
 35 37  1  0  0  0  0
 37 38  2  0  0  0  0
 39 37  1  6  0  0  0
 39 40  1  0  0  0  0
 39 44  1  0  0  0  0
 40 41  1  0  0  0  0
 41 42  2  0  0  0  0
 42 43  1  0  0  0  0
 44 45  1  6  0  0  0
 44 46  1  0  0  0  0
 44 47  1  0  0  0  0
 46 47  1  0  0  0  0
 47 48  2  0  0  0  0
 49 50  2  0  0  0  0
 49 51  1  0  0  0  0
 51 52  1  0  0  0  0
 51 54  1  0  0  0  0
 52 53  2  0  0  0  0
M  END
$$$$