
 OpenBabel11242002373D

 52 60  0  0  1  0  0  0  0  0999 V2000
    2.8489    2.1104   -6.3718 O   0  0  0  0  0  0  0  0  0  0  0  0
    4.1248    2.0562   -5.8782 C   0  0  0  0  0  0  0  0  0  0  0  0
    4.5292    2.6147   -4.7311 C   0  0  0  0  0  0  0  0  0  0  0  0
    3.6713    3.3158   -3.8973 O   0  0  0  0  0  0  0  0  0  0  0  0
    4.2528    3.7754   -2.6619 C   0  0  2  0  0  0  0  0  0  0  0  0
    5.1189    4.9486   -2.8860 N   0  0  0  0  0  0  0  0  0  0  0  0
    4.7360    6.3013   -2.8784 C   0  0  0  0  0  0  0  0  0  0  0  0
    5.5926    7.3415   -3.0621 C   0  0  0  0  0  0  0  0  0  0  0  0
    5.2212    8.6724   -2.9976 O   0  0  0  0  0  0  0  0  0  0  0  0
    3.9067    9.0106   -2.7890 C   0  0  0  0  0  0  0  0  0  0  0  0
    2.9435    8.0920   -2.6209 C   0  0  0  0  0  0  0  0  0  0  0  0
    3.2569    6.6256   -2.6422 C   0  0  0  0  0  0  0  0  0  0  0  0
    1.5056    8.5363   -2.4529 C   0  0  3  0  0  0  0  0  0  0  0  0
    1.0251    8.0526   -1.1999 O   0  0  0  0  0  0  0  0  0  0  0  0
   -0.2542    8.3737   -0.8695 C   0  0  0  0  0  0  0  0  0  0  0  0
   -0.8469    7.8242    0.0472 O   0  0  0  0  0  0  0  0  0  0  0  0
   -0.8519    9.2913   -1.6688 O   0  0  0  0  0  0  0  0  0  0  0  0
   -0.0801   10.3929   -2.1319 C   0  0  3  0  0  0  0  0  0  0  0  0
    1.3212   10.0196   -2.4294 C   0  0  0  0  0  0  0  0  0  0  0  0
    2.3551   10.8740   -2.5971 C   0  0  0  0  0  0  0  0  0  0  0  0
    3.6195   10.3474   -2.7742 N   0  0  0  0  0  0  0  0  0  0  0  0
    2.2567   12.3513   -2.5913 C   0  0  0  0  0  0  0  0  0  0  0  0
    3.1527   13.1704   -3.3660 O   0  0  0  0  0  0  0  0  0  0  0  0
    1.7580   13.0898   -3.7163 O   0  0  0  0  0  0  0  0  0  0  0  0
   -0.6652   10.8603   -3.3333 O   0  0  0  0  0  0  0  0  0  0  0  0
    7.0141    7.2206   -3.4282 C   0  0  0  0  0  0  0  0  0  0  0  0
    7.9705    7.1960   -2.4272 C   0  0  0  0  0  0  0  0  0  0  0  0
    9.2871    7.1264   -2.6864 N   0  0  0  0  0  0  0  0  0  0  0  0
    9.7112    7.0438   -3.9820 N   0  0  0  0  0  0  0  0  0  0  0  0
    8.8375    7.0329   -4.9975 C   0  0  0  0  0  0  0  0  0  0  0  0
    7.4523    7.1682   -4.7735 C   0  0  0  0  0  0  0  0  0  0  0  0
    6.5868    7.2144   -5.8948 C   0  0  0  0  0  0  0  0  0  0  0  0
    7.0794    6.9605   -7.1764 C   0  0  0  0  0  0  0  0  0  0  0  0
    8.4277    6.7060   -7.3655 C   0  0  0  0  0  0  0  0  0  0  0  0
    9.3045    6.8265   -6.2909 C   0  0  0  0  0  0  0  0  0  0  0  0
    8.9604    6.3226   -8.5632 O   0  0  0  0  0  0  0  0  0  0  0  0
    8.0748    5.5540   -9.3955 C   0  0  2  0  0  0  0  0  0  0  0  0
    6.7009    6.1612   -9.5551 C   0  0  0  0  0  0  0  0  0  0  0  0
    5.9783    5.9449  -10.5190 O   0  0  0  0  0  0  0  0  0  0  0  0
    6.1774    6.8838   -8.3308 C   0  0  0  0  0  0  0  0  0  0  0  0
    5.0372    7.3165   -8.2915 O   0  0  0  0  0  0  0  0  0  0  0  0
    8.0168    4.1114   -8.9658 C   0  0  1  0  0  0  0  0  0  0  0  0
    9.2732    3.3929   -8.9848 O   0  0  0  0  0  0  0  0  0  0  0  0
    7.1681    3.8559   -7.8446 O   0  0  0  0  0  0  0  0  0  0  0  0
    6.8141    3.2644   -9.0089 C   0  0  0  0  0  0  0  0  0  0  0  0
    6.6781    2.0927   -9.2490 O   0  0  0  0  0  0  0  0  0  0  0  0
    5.0015    2.6672   -1.9197 C   0  0  0  0  0  0  0  0  0  0  0  0
    4.9712    2.4737   -0.7141 O   0  0  0  0  0  0  0  0  0  0  0  0
    5.8754    1.8488   -2.8359 C   0  0  0  0  0  0  0  0  0  0  0  0
    6.4750    0.8613   -2.4508 O   0  0  0  0  0  0  0  0  0  0  0  0
    5.8944    2.2566   -4.2872 C   0  0  0  0  0  0  0  0  0  0  0  0
    6.9085    2.3176   -4.9529 O   0  0  0  0  0  0  0  0  0  0  0  0
  1  2  1  0  0  0  0
  2  3  2  0  0  0  0
  3  4  1  0  0  0  0
  3 51  1  0  0  0  0
  4  5  1  0  0  0  0
  5  6  1  6  0  0  0
  5 47  1  0  0  0  0
  6  7  1  0  0  0  0
  7  8  2  0  0  0  0
  7 12  1  0  0  0  0
  8  9  1  0  0  0  0
  8 26  1  0  0  0  0
  9 10  1  0  0  0  0
 10 11  2  0  0  0  0
 10 21  1  0  0  0  0
 11 12  1  0  0  0  0
 11 13  1  0  0  0  0
 13 14  1  0  0  0  0
 13 19  1  0  0  0  0
 14 15  1  0  0  0  0
 15 16  2  0  0  0  0
 15 17  1  0  0  0  0
 17 18  1  0  0  0  0
 18 19  1  0  0  0  0
 18 25  1  0  0  0  0
 19 20  2  0  0  0  0
 20 21  1  0  0  0  0
 20 22  1  0  0  0  0
 22 23  1  0  0  0  0
 22 24  1  0  0  0  0
 23 24  1  0  0  0  0
 26 27  2  0  0  0  0
 26 31  1  0  0  0  0
 27 28  1  0  0  0  0
 28 29  2  0  0  0  0
 29 30  1  0  0  0  0
 30 31  2  0  0  0  0
 30 35  1  0  0  0  0
 31 32  1  0  0  0  0
 32 33  2  0  0  0  0
 33 34  1  0  0  0  0
 33 40  1  0  0  0  0
 34 35  2  0  0  0  0
 34 36  1  0  0  0  0
 37 36  1  1  0  0  0
 37 38  1  0  0  0  0
 37 42  1  0  0  0  0
 38 39  2  0  0  0  0
 38 40  1  0  0  0  0
 40 41  2  0  0  0  0
 42 43  1  6  0  0  0
 42 44  1  0  0  0  0
 42 45  1  0  0  0  0
 44 45  1  0  0  0  0
 45 46  2  0  0  0  0
 47 48  2  0  0  0  0
 47 49  1  0  0  0  0
 49 50  2  0  0  0  0
 49 51  1  0  0  0  0
 51 52  2  0  0  0  0
M  END
$$$$