
 OpenBabel11232001003D

 54 63  0  0  1  0  0  0  0  0999 V2000
   16.8542   -0.0323  -11.2643 O   0  0  0  0  0  0  0  0  0  0  0  0
   16.5358   -1.3682  -11.2176 C   0  0  0  0  0  0  0  0  0  0  0  0
   15.3021   -1.7969  -10.9313 C   0  0  0  0  0  0  0  0  0  0  0  0
   14.3119   -0.8852  -10.6153 O   0  0  0  0  0  0  0  0  0  0  0  0
   13.0376   -1.2326  -11.1116 C   0  0  2  0  0  0  0  0  0  0  0  0
   12.0678   -0.2455  -10.6976 O   0  0  0  0  0  0  0  0  0  0  0  0
   11.9757    0.9722  -11.3453 C   0  0  0  0  0  0  0  0  0  0  0  0
   10.9170    1.7859  -11.1154 C   0  0  0  0  0  0  0  0  0  0  0  0
   10.7965    3.0254  -11.7641 O   0  0  0  0  0  0  0  0  0  0  0  0
   11.7942    3.4719  -12.6427 C   0  0  0  0  0  0  0  0  0  0  0  0
   12.8843    2.7239  -12.9035 C   0  0  0  0  0  0  0  0  0  0  0  0
   13.1024    1.3874  -12.2607 C   0  0  0  0  0  0  0  0  0  0  0  0
   13.9576    3.1758  -13.8678 C   0  0  3  0  0  0  0  0  0  0  0  0
   14.0742    2.1978  -14.8824 O   0  0  0  0  0  0  0  0  0  0  0  0
   14.9811    2.4517  -15.8699 C   0  0  0  0  0  0  0  0  0  0  0  0
   15.4945    1.5374  -16.4937 O   0  0  0  0  0  0  0  0  0  0  0  0
   15.2507    3.7621  -16.1333 O   0  0  0  0  0  0  0  0  0  0  0  0
   14.5216    4.7525  -15.6063 C   0  0  0  0  0  0  0  0  0  0  0  0
   14.7075    5.9534  -16.0183 N   0  0  0  0  0  0  0  0  0  0  0  0
   13.5833    4.4296  -14.5402 C   0  0  0  0  0  0  0  0  0  0  0  0
   12.4790    5.1470  -14.2401 C   0  0  0  0  0  0  0  0  0  0  0  0
   11.6190    4.7050  -13.2407 O   0  3  0  0  0  0  0  0  0  0  0  0
   12.0302    6.3692  -14.9536 C   0  0  0  0  0  0  0  0  0  0  0  0
   11.1103    6.2741  -16.0500 O   0  0  0  0  0  0  0  0  0  0  0  0
   10.6706    6.8249  -14.7955 O   0  0  0  0  0  0  0  0  0  0  0  0
    9.8147    1.4476  -10.1336 C   0  0  0  0  0  0  0  0  0  0  0  0
    9.3808    0.1191  -10.0261 C   0  0  0  0  0  0  0  0  0  0  0  0
    8.4838   -0.2559   -9.1090 N   0  3  0  0  0  0  0  0  0  0  0  0
    8.1787   -1.5628   -8.9848 F   0  0  0  0  0  0  0  0  0  0  0  0
    7.8932    0.6028   -8.3059 N   0  0  0  0  0  0  0  0  0  0  0  0
    8.2162    1.8941   -8.3616 C   0  0  0  0  0  0  0  0  0  0  0  0
    9.1963    2.3852   -9.2546 C   0  0  0  0  0  0  0  0  0  0  0  0
    9.5021    3.7681   -9.1685 C   0  0  0  0  0  0  0  0  0  0  0  0
    8.8379    4.6273   -8.2744 C   0  0  0  0  0  0  0  0  0  0  0  0
    7.8606    4.1387   -7.4330 C   0  0  0  0  0  0  0  0  0  0  0  0
    7.5768    2.7749   -7.4818 C   0  0  0  0  0  0  0  0  0  0  0  0
    6.6588    2.2802   -6.6362 F   0  0  0  0  0  0  0  0  0  0  0  0
    7.1958    4.9047   -6.5145 O   0  0  0  0  0  0  0  0  0  0  0  0
    7.2492    6.3376   -6.7229 C   0  0  1  0  0  0  0  0  0  0  0  0
    8.5381    6.8982   -7.1583 C   0  0  0  0  0  0  0  0  0  0  0  0
    9.0190    7.9373   -6.7438 O   0  0  0  0  0  0  0  0  0  0  0  0
    9.2075    6.0445   -8.2158 C   0  0  0  0  0  0  0  0  0  0  0  0
   10.0243    6.4924   -9.0082 O   0  0  0  0  0  0  0  0  0  0  0  0
    6.1178    6.9241   -7.3164 O   0  0  0  0  0  0  0  0  0  0  0  0
    6.3684    7.2256   -5.9024 C   0  0  1  0  0  0  0  0  0  0  0  0
    5.6905    6.3597   -4.8942 O   0  0  0  0  0  0  0  0  0  0  0  0
    5.0964    7.4551   -5.2927 C   0  0  0  0  0  0  0  0  0  0  0  0
    4.5745    8.3834   -4.7209 O   0  0  0  0  0  0  0  0  0  0  0  0
   12.5445   -2.5423  -10.5283 C   0  0  0  0  0  0  0  0  0  0  0  0
   11.3931   -2.7314  -10.1486 O   0  0  0  0  0  0  0  0  0  0  0  0
   13.6090   -3.6170  -10.5031 C   0  0  0  0  0  0  0  0  0  0  0  0
   13.3131   -4.7470  -10.1554 O   0  0  0  0  0  0  0  0  0  0  0  0
   15.0264   -3.2636  -10.9220 C   0  0  0  0  0  0  0  0  0  0  0  0
   15.8283   -4.1112  -11.2685 O   0  0  0  0  0  0  0  0  0  0  0  0
  1  2  1  0  0  0  0
  2  3  2  0  0  0  0
  3  4  1  0  0  0  0
  3 53  1  0  0  0  0
  4  5  1  0  0  0  0
  5  6  1  1  0  0  0
  5 49  1  0  0  0  0
  6  7  1  0  0  0  0
  7  8  2  0  0  0  0
  7 12  1  0  0  0  0
  8  9  1  0  0  0  0
  8 26  1  0  0  0  0
  9 10  1  0  0  0  0
 10 11  2  0  0  0  0
 10 22  1  0  0  0  0
 11 12  1  0  0  0  0
 11 13  1  0  0  0  0
 13 14  1  0  0  0  0
 13 20  1  0  0  0  0
 14 15  1  0  0  0  0
 15 16  2  0  0  0  0
 15 17  1  0  0  0  0
 17 18  1  0  0  0  0
 18 19  2  0  0  0  0
 18 20  1  0  0  0  0
 20 21  2  0  0  0  0
 21 22  1  0  0  0  0
 21 23  1  0  0  0  0
 23 24  1  0  0  0  0
 23 25  1  0  0  0  0
 24 25  1  0  0  0  0
 26 27  2  0  0  0  0
 26 32  1  0  0  0  0
 27 28  1  0  0  0  0
 28 29  1  0  0  0  0
 28 30  2  0  0  0  0
 30 31  1  0  0  0  0
 31 32  2  0  0  0  0
 31 36  1  0  0  0  0
 32 33  1  0  0  0  0
 33 34  2  0  0  0  0
 34 35  1  0  0  0  0
 34 42  1  0  0  0  0
 35 36  2  0  0  0  0
 35 38  1  0  0  0  0
 36 37  1  0  0  0  0
 39 38  1  1  0  0  0
 39 40  1  0  0  0  0
 39 44  1  0  0  0  0
 39 45  1  0  0  0  0
 40 41  2  0  0  0  0
 40 42  1  0  0  0  0
 42 43  2  0  0  0  0
 45 44  1  6  0  0  0
 45 46  1  0  0  0  0
 45 47  1  0  0  0  0
 46 47  1  0  0  0  0
 47 48  2  0  0  0  0
 49 50  2  0  0  0  0
 49 51  1  0  0  0  0
 51 52  2  0  0  0  0
 51 53  1  0  0  0  0
 53 54  2  0  0  0  0
M  CHG  2  22   1  28   1
M  END
$$$$