
 OpenBabel03302114553D

 53 59  0  0  1  0  0  0  0  0999 V2000
    2.7996    4.5761    8.3024 O   0  0  0  0  0  0  0  0  0  0  0  0
    4.2146    4.6444    8.5149 C   0  0  0  0  0  0  0  0  0  0  0  0
    4.9124    5.3814    7.3278 C   0  0  1  0  0  0  0  0  0  0  0  0
    4.4359    4.9499    6.0372 O   0  0  0  0  0  0  0  0  0  0  0  0
    5.0951    5.5164    4.8515 C   0  0  2  0  0  0  0  0  0  0  0  0
    6.5778    5.2973    4.7361 O   0  0  0  0  0  0  0  0  0  0  0  0
    7.2836    4.3252    3.9279 C   0  0  0  0  0  0  0  0  0  0  0  0
    6.9451    3.0290    3.5383 C   0  0  0  0  0  0  0  0  0  0  0  0
    5.8923    2.1699    4.1665 C   0  0  0  0  0  0  0  0  0  0  0  0
    5.5350    0.8464    3.8953 C   0  0  0  0  0  0  0  0  0  0  0  0
    4.5825    0.0963    4.6111 C   0  0  0  0  0  0  0  0  0  0  0  0
    4.0286    0.6801    5.7377 C   0  0  0  0  0  0  0  0  0  0  0  0
    4.4429    1.9033    6.0588 C   0  0  0  0  0  0  0  0  0  0  0  0
    5.3742    2.6110    5.3695 C   0  0  0  0  0  0  0  0  0  0  0  0
    4.0279    2.3678    7.2547 O   0  0  0  0  0  0  0  0  0  0  0  0
    3.2457    0.0104    6.6177 O   0  0  0  0  0  0  0  0  0  0  0  0
    7.7468    2.2517    2.6639 N   0  0  0  0  0  0  0  0  0  0  0  0
    6.8182    1.6503    1.2701 Cl  0  0  0  0  0  0  0  0  0  0  0  0
    8.9478    2.7366    2.1094 C   0  0  0  0  0  0  0  0  0  0  0  0
    9.3015    4.0798    2.2832 C   0  0  0  0  0  0  0  0  0  0  0  0
    8.7521    4.8189    3.5120 C   0  0  3  0  0  0  0  0  0  0  0  0
    9.8064    4.7188    4.7290 C   0  0  3  0  0  0  0  0  0  0  0  0
   10.1602    3.2919    5.2157 C   0  0  0  0  0  0  0  0  0  0  0  0
   11.3844    2.8756    4.4104 C   0  0  3  0  0  0  0  0  0  0  0  0
   12.2369    4.1370    4.3501 C   0  0  2  0  0  0  0  0  0  0  0  0
   11.2316    5.3133    4.4640 C   0  0  3  0  0  0  0  0  0  0  0  0
   11.6257    6.1010    5.6000 O   0  0  0  0  0  0  0  0  0  0  0  0
   12.9921    4.2161    3.1376 O   0  0  0  0  0  0  0  0  0  0  0  0
   12.0814    1.7846    4.9918 O   0  0  0  0  0  0  0  0  0  0  0  0
   10.3055    4.5733    1.4519 C   0  0  0  0  0  0  0  0  0  0  0  0
   10.5745    5.9088    1.3784 O   0  0  0  0  0  0  0  0  0  0  0  0
   11.1248    3.7030    0.7249 C   0  0  0  0  0  0  0  0  0  0  0  0
   10.8922    2.3399    0.7343 C   0  0  0  0  0  0  0  0  0  0  0  0
    9.7754    1.8551    1.3743 C   0  0  0  0  0  0  0  0  0  0  0  0
   11.7824    1.4617    0.1979 O   0  0  0  0  0  0  0  0  0  0  0  0
   12.2586    4.1627    0.1141 O   0  0  0  0  0  0  0  0  0  0  0  0
    4.6303    7.0217    4.8633 C   0  0  2  0  0  0  0  0  0  0  0  0
    4.9713    7.6372    6.2277 C   0  0  2  0  0  0  0  0  0  0  0  0
    4.5741    6.8467    7.4802 C   0  0  2  0  0  0  0  0  0  0  0  0
    5.2743    7.3478    8.6286 O   0  0  0  0  0  0  0  0  0  0  0  0
    4.4009    8.9533    6.2610 O   0  0  0  0  0  0  0  0  0  0  0  0
    2.9406    8.7818    6.2622 O   0  0  0  0  0  0  0  0  0  0  0  0
    2.5287    8.3337    4.9575 C   0  0  3  0  0  0  0  0  0  0  0  0
    3.2010    7.1120    4.5588 O   0  0  0  0  0  0  0  0  0  0  0  0
    2.4259    9.4430    3.8855 C   0  0  0  0  0  0  0  0  0  0  0  0
    1.8639    9.1986    2.6056 C   0  0  0  0  0  0  0  0  0  0  0  0
    1.9090   10.1849    1.6048 C   0  0  0  0  0  0  0  0  0  0  0  0
    1.5157    9.9507    0.3144 O   0  0  0  0  0  0  0  0  0  0  0  0
    2.3891   11.4543    1.8882 C   0  0  0  0  0  0  0  0  0  0  0  0
    2.7978   11.7547    3.1757 C   0  0  0  0  0  0  0  0  0  0  0  0
    2.8257   10.7682    4.1649 C   0  0  0  0  0  0  0  0  0  0  0  0
    3.1902   13.0287    3.4744 O   0  0  0  0  0  0  0  0  0  0  0  0
    2.4667   12.4204    0.9198 O   0  0  0  0  0  0  0  0  0  0  0  0
  1  2  1  0  0  0  0
  3  4  1  0  0  0  0
  3 39  1  0  0  0  0
  3  2  1  1  0  0  0
  4  5  1  0  0  0  0
  5 37  1  0  0  0  0
  5  6  1  1  0  0  0
  6  7  1  0  0  0  0
  7  8  2  0  0  0  0
  7 21  1  0  0  0  0
  8  9  1  0  0  0  0
  8 17  1  0  0  0  0
  9 10  2  0  0  0  0
  9 14  1  0  0  0  0
 10 11  1  0  0  0  0
 11 12  2  0  0  0  0
 12 13  1  0  0  0  0
 12 16  1  0  0  0  0
 13 14  2  0  0  0  0
 13 15  1  0  0  0  0
 17 18  1  0  0  0  0
 17 19  1  0  0  0  0
 19 20  2  0  0  0  0
 19 34  1  0  0  0  0
 20 21  1  0  0  0  0
 20 30  1  0  0  0  0
 21 22  1  0  0  0  0
 22 23  1  0  0  0  0
 22 26  1  0  0  0  0
 23 24  1  0  0  0  0
 24 25  1  0  0  0  0
 24 29  1  0  0  0  0
 25 26  1  0  0  0  0
 25 28  1  6  0  0  0
 26 27  1  0  0  0  0
 30 31  1  0  0  0  0
 30 32  2  0  0  0  0
 32 33  1  0  0  0  0
 32 36  1  0  0  0  0
 33 34  2  0  0  0  0
 33 35  1  0  0  0  0
 37 38  1  0  0  0  0
 37 44  1  1  0  0  0
 38 39  1  0  0  0  0
 38 41  1  1  0  0  0
 39 40  1  1  0  0  0
 41 42  1  0  0  0  0
 42 43  1  0  0  0  0
 43 44  1  0  0  0  0
 43 45  1  0  0  0  0
 45 46  2  0  0  0  0
 45 51  1  0  0  0  0
 46 47  1  0  0  0  0
 47 48  1  0  0  0  0
 47 49  2  0  0  0  0
 49 50  1  0  0  0  0
 49 53  1  0  0  0  0
 50 51  2  0  0  0  0
 50 52  1  0  0  0  0
M  END
$$$$