
 OpenBabel11212014333D

 52 60  0  0  1  0  0  0  0  0999 V2000
    3.5366    2.5587    7.1942 O   0  0  0  0  0  0  0  0  0  0  0  0
    4.6515    2.4804    6.3994 C   0  0  0  0  0  0  0  0  0  0  0  0
    4.8301    1.4939    5.5126 C   0  0  0  0  0  0  0  0  0  0  0  0
    3.8743    0.5019    5.3929 O   0  0  0  0  0  0  0  0  0  0  0  0
    3.8207   -0.2198    4.1691 C   0  0  2  0  0  0  0  0  0  0  0  0
    2.8058   -1.2401    4.2001 O   0  0  0  0  0  0  0  0  0  0  0  0
    2.8873   -2.2701    5.1265 C   0  0  0  0  0  0  0  0  0  0  0  0
    2.3860   -3.4894    4.8429 C   0  0  0  0  0  0  0  0  0  0  0  0
    2.4198   -4.5565    5.7341 O   0  0  0  0  0  0  0  0  0  0  0  0
    2.9490   -4.3755    7.0098 C   0  0  0  0  0  0  0  0  0  0  0  0
    3.4187   -3.1761    7.4096 C   0  0  0  0  0  0  0  0  0  0  0  0
    3.4384   -1.9838    6.4969 C   0  0  0  0  0  0  0  0  0  0  0  0
    3.9646   -2.9478    8.7928 C   0  0  3  0  0  0  0  0  0  0  0  0
    3.0925   -2.0498    9.4514 O   0  0  0  0  0  0  0  0  0  0  0  0
    3.3524   -1.7384   10.7502 C   0  0  0  0  0  0  0  0  0  0  0  0
    2.8590   -0.7599   11.2851 O   0  0  0  0  0  0  0  0  0  0  0  0
    4.1711   -2.5959   11.4108 O   0  0  0  0  0  0  0  0  0  0  0  0
    4.5267   -3.9124   10.9544 C   0  0  0  0  0  0  0  0  0  0  0  0
    3.9748   -4.1947    9.5999 C   0  0  0  0  0  0  0  0  0  0  0  0
    3.5021   -5.3794    9.1395 C   0  0  0  0  0  0  0  0  0  0  0  0
    2.9629   -5.4584    7.8642 O   0  3  0  0  0  0  0  0  0  0  0  0
    2.5455   -6.7005    7.3749 F   0  0  0  0  0  0  0  0  0  0  0  0
    3.5372   -6.6303    9.9256 C   0  0  0  0  0  0  0  0  0  0  0  0
    4.2037   -7.7998    9.4262 O   0  0  0  0  0  0  0  0  0  0  0  0
    4.7476   -7.0865   10.5511 O   0  0  0  0  0  0  0  0  0  0  0  0
    1.6982   -3.7942    3.5767 C   0  0  0  0  0  0  0  0  0  0  0  0
    2.4390   -4.2450    2.4967 C   0  0  0  0  0  0  0  0  0  0  0  0
    1.8736   -4.5609    1.3215 N   0  0  0  0  0  0  0  0  0  0  0  0
    0.5201   -4.4215    1.1625 N   0  0  0  0  0  0  0  0  0  0  0  0
   -0.2561   -3.9791    2.1590 C   0  0  0  0  0  0  0  0  0  0  0  0
    0.2971   -3.6507    3.4127 C   0  0  0  0  0  0  0  0  0  0  0  0
   -0.5764   -3.2035    4.4313 C   0  0  0  0  0  0  0  0  0  0  0  0
   -1.9571   -3.1157    4.2118 C   0  0  0  0  0  0  0  0  0  0  0  0
   -2.4896   -3.4320    2.9756 C   0  0  0  0  0  0  0  0  0  0  0  0
   -1.6299   -3.8475    1.9575 C   0  0  0  0  0  0  0  0  0  0  0  0
   -3.8139   -3.3403    2.6607 O   0  0  0  0  0  0  0  0  0  0  0  0
   -4.7384   -3.4195    3.7494 C   0  0  2  0  0  0  0  0  0  0  0  0
   -4.3291   -2.7773    5.0595 C   0  0  0  0  0  0  0  0  0  0  0  0
   -5.1154   -2.4140    5.9239 O   0  0  0  0  0  0  0  0  0  0  0  0
   -2.8408   -2.6941    5.2998 C   0  0  0  0  0  0  0  0  0  0  0  0
   -2.3826   -2.3187    6.3692 O   0  0  0  0  0  0  0  0  0  0  0  0
   -5.1307   -4.8470    3.9685 C   0  0  1  0  0  0  0  0  0  0  0  0
   -4.0586   -5.7694    4.2933 O   0  0  0  0  0  0  0  0  0  0  0  0
   -6.3517   -5.0370    4.6809 O   0  0  0  0  0  0  0  0  0  0  0  0
   -6.3357   -5.4556    3.4022 C   0  0  0  0  0  0  0  0  0  0  0  0
   -6.4899   -6.5702    2.9497 O   0  0  0  0  0  0  0  0  0  0  0  0
    5.1907   -0.7399    3.7581 C   0  0  0  0  0  0  0  0  0  0  0  0
    5.4932   -1.9050    3.5448 O   0  0  0  0  0  0  0  0  0  0  0  0
    6.2128    0.3607    3.7246 C   0  0  0  0  0  0  0  0  0  0  0  0
    7.0899    0.3512    2.8780 O   0  0  0  0  0  0  0  0  0  0  0  0
    6.1057    1.4779    4.7407 C   0  0  0  0  0  0  0  0  0  0  0  0
    7.0207    2.2633    4.9210 O   0  0  0  0  0  0  0  0  0  0  0  0
  1  2  1  0  0  0  0
  2  3  2  0  0  0  0
  3  4  1  0  0  0  0
  3 51  1  0  0  0  0
  4  5  1  0  0  0  0
  5  6  1  1  0  0  0
  5 47  1  0  0  0  0
  6  7  1  0  0  0  0
  7  8  2  0  0  0  0
  7 12  1  0  0  0  0
  8  9  1  0  0  0  0
  8 26  1  0  0  0  0
  9 10  1  0  0  0  0
 10 11  2  0  0  0  0
 10 21  1  0  0  0  0
 11 12  1  0  0  0  0
 11 13  1  0  0  0  0
 13 14  1  0  0  0  0
 13 19  1  0  0  0  0
 14 15  1  0  0  0  0
 15 16  2  0  0  0  0
 15 17  1  0  0  0  0
 17 18  1  0  0  0  0
 18 19  1  0  0  0  0
 19 20  2  0  0  0  0
 20 21  1  0  0  0  0
 20 23  1  0  0  0  0
 21 22  1  0  0  0  0
 23 24  1  0  0  0  0
 23 25  1  0  0  0  0
 24 25  1  0  0  0  0
 26 27  2  0  0  0  0
 26 31  1  0  0  0  0
 27 28  1  0  0  0  0
 28 29  2  0  0  0  0
 29 30  1  0  0  0  0
 30 31  2  0  0  0  0
 30 35  1  0  0  0  0
 31 32  1  0  0  0  0
 32 33  2  0  0  0  0
 33 34  1  0  0  0  0
 33 40  1  0  0  0  0
 34 35  2  0  0  0  0
 34 36  1  0  0  0  0
 37 36  1  6  0  0  0
 37 38  1  0  0  0  0
 37 42  1  0  0  0  0
 38 39  2  0  0  0  0
 38 40  1  0  0  0  0
 40 41  2  0  0  0  0
 42 43  1  1  0  0  0
 42 44  1  0  0  0  0
 42 45  1  0  0  0  0
 44 45  1  0  0  0  0
 45 46  2  0  0  0  0
 47 48  2  0  0  0  0
 47 49  1  0  0  0  0
 49 50  2  0  0  0  0
 49 51  1  0  0  0  0
 51 52  2  0  0  0  0
M  CHG  1  21   1
M  END
$$$$