
 OpenBabel11212020353D

 54 62  0  0  1  0  0  0  0  0999 V2000
   -1.9307    5.2569   -2.0611 O   0  0  0  0  0  0  0  0  0  0  0  0
   -1.6650    4.2347   -1.1851 C   0  0  0  0  0  0  0  0  0  0  0  0
   -0.5886    3.4463   -1.2917 C   0  0  0  0  0  0  0  0  0  0  0  0
    0.2983    3.6002   -2.3411 O   0  0  0  0  0  0  0  0  0  0  0  0
    1.6446    3.2463   -2.0264 C   0  0  2  0  0  0  0  0  0  0  0  0
    2.5144    3.5270   -3.1280 O   0  0  0  0  0  0  0  0  0  0  0  0
    2.5369    4.8246   -3.6194 C   0  0  0  0  0  0  0  0  0  0  0  0
    2.8459    5.0569   -4.9106 C   0  0  0  0  0  0  0  0  0  0  0  0
    2.9109    6.3270   -5.4668 O   0  0  0  0  0  0  0  0  0  0  0  0
    2.6524    7.4331   -4.6731 C   0  0  0  0  0  0  0  0  0  0  0  0
    2.3700    7.3162   -3.3614 C   0  0  0  0  0  0  0  0  0  0  0  0
    2.2951    5.9775   -2.6792 C   0  0  0  0  0  0  0  0  0  0  0  0
    2.0677    8.5161   -2.5100 C   0  0  3  0  0  0  0  0  0  0  0  0
    2.9977    8.5675   -1.4414 O   0  0  0  0  0  0  0  0  0  0  0  0
    2.7701    9.5615   -0.5367 C   0  0  0  0  0  0  0  0  0  0  0  0
    3.2120    9.5253    0.5983 O   0  0  0  0  0  0  0  0  0  0  0  0
    1.9697   10.5609   -0.9918 O   0  0  0  0  0  0  0  0  0  0  0  0
    2.1327   10.9559   -2.3460 C   0  0  3  0  0  0  0  0  0  0  0  0
    2.2415    9.7843   -3.2593 C   0  0  0  0  0  0  0  0  0  0  0  0
    2.5214    9.8271   -4.5813 C   0  0  0  0  0  0  0  0  0  0  0  0
    2.6922    8.6549   -5.2964 O   0  3  0  0  0  0  0  0  0  0  0  0
    2.7066   11.0842   -5.3409 C   0  0  0  0  0  0  0  0  0  0  0  0
    4.0060   11.6714   -5.4818 O   0  0  0  0  0  0  0  0  0  0  0  0
    3.3604   11.0727   -6.6223 O   0  0  0  0  0  0  0  0  0  0  0  0
    0.9711   11.6496   -2.7574 O   0  0  0  0  0  0  0  0  0  0  0  0
    3.1568    3.9751   -5.8615 C   0  0  0  0  0  0  0  0  0  0  0  0
    4.4687    3.7030   -5.9677 N   0  0  0  0  0  0  0  0  0  0  0  0
    4.7854    2.7051   -6.7992 C   0  0  0  0  0  0  0  0  0  0  0  0
    6.0821    2.3828   -6.8966 F   0  0  0  0  0  0  0  0  0  0  0  0
    3.9261    2.0169   -7.5602 N   0  0  0  0  0  0  0  0  0  0  0  0
    2.6217    2.3182   -7.4630 C   0  0  0  0  0  0  0  0  0  0  0  0
    2.1618    3.3226   -6.6008 C   0  0  0  0  0  0  0  0  0  0  0  0
    0.7831    3.6232   -6.5353 C   0  0  0  0  0  0  0  0  0  0  0  0
   -0.1294    2.9091   -7.3090 C   0  0  0  0  0  0  0  0  0  0  0  0
   -1.5552    3.2323   -7.2331 C   0  0  0  0  0  0  0  0  0  0  0  0
   -1.9725    4.1420   -6.5340 O   0  0  0  0  0  0  0  0  0  0  0  0
   -2.4737    2.3877   -8.0775 C   0  0  0  0  0  0  0  0  0  0  0  0
   -3.5597    2.8187   -8.4352 O   0  0  0  0  0  0  0  0  0  0  0  0
   -1.9169    1.0248   -8.4094 C   0  0  1  0  0  0  0  0  0  0  0  0
   -0.5504    1.0777   -8.8549 O   0  0  0  0  0  0  0  0  0  0  0  0
    0.3017    1.8852   -8.1401 C   0  0  0  0  0  0  0  0  0  0  0  0
    1.6781    1.5916   -8.2209 C   0  0  0  0  0  0  0  0  0  0  0  0
    2.1324    0.6870   -9.2184 N   0  0  0  0  0  0  0  0  0  0  0  0
   -2.1529    0.0312   -7.2955 C   0  0  1  0  0  0  0  0  0  0  0  0
   -3.5320   -0.2121   -6.9534 O   0  0  0  0  0  0  0  0  0  0  0  0
   -1.3170   -1.1403   -7.3136 O   0  0  0  0  0  0  0  0  0  0  0  0
   -1.1892   -0.3149   -6.2781 C   0  0  0  0  0  0  0  0  0  0  0  0
   -0.2419    0.2832   -5.7878 O   0  0  0  0  0  0  0  0  0  0  0  0
    1.7057    1.7684   -1.6777 C   0  0  0  0  0  0  0  0  0  0  0  0
    2.4576    0.9379   -2.1623 O   0  0  0  0  0  0  0  0  0  0  0  0
    0.7230    1.4087   -0.5897 C   0  0  0  0  0  0  0  0  0  0  0  0
    0.8470    0.3729    0.0421 O   0  0  0  0  0  0  0  0  0  0  0  0
   -0.3950    2.3813   -0.2666 C   0  0  0  0  0  0  0  0  0  0  0  0
   -1.0316    2.3156    0.7709 O   0  0  0  0  0  0  0  0  0  0  0  0
  1  2  1  0  0  0  0
  2  3  2  0  0  0  0
  3  4  1  0  0  0  0
  3 53  1  0  0  0  0
  4  5  1  0  0  0  0
  5  6  1  6  0  0  0
  5 49  1  0  0  0  0
  6  7  1  0  0  0  0
  7  8  2  0  0  0  0
  7 12  1  0  0  0  0
  8  9  1  0  0  0  0
  8 26  1  0  0  0  0
  9 10  1  0  0  0  0
 10 11  2  0  0  0  0
 10 21  1  0  0  0  0
 11 12  1  0  0  0  0
 11 13  1  0  0  0  0
 13 14  1  0  0  0  0
 13 19  1  0  0  0  0
 14 15  1  0  0  0  0
 15 16  2  0  0  0  0
 15 17  1  0  0  0  0
 17 18  1  0  0  0  0
 18 19  1  0  0  0  0
 18 25  1  0  0  0  0
 19 20  2  0  0  0  0
 20 21  1  0  0  0  0
 20 22  1  0  0  0  0
 22 23  1  0  0  0  0
 22 24  1  0  0  0  0
 23 24  1  0  0  0  0
 26 27  2  0  0  0  0
 26 32  1  0  0  0  0
 27 28  1  0  0  0  0
 28 29  1  0  0  0  0
 28 30  2  0  0  0  0
 30 31  1  0  0  0  0
 31 32  2  0  0  0  0
 31 42  1  0  0  0  0
 32 33  1  0  0  0  0
 33 34  2  0  0  0  0
 34 35  1  0  0  0  0
 34 41  1  0  0  0  0
 35 36  2  0  0  0  0
 35 37  1  0  0  0  0
 37 38  2  0  0  0  0
 39 37  1  1  0  0  0
 39 40  1  0  0  0  0
 39 44  1  0  0  0  0
 40 41  1  0  0  0  0
 41 42  2  0  0  0  0
 42 43  1  0  0  0  0
 44 45  1  1  0  0  0
 44 46  1  0  0  0  0
 44 47  1  0  0  0  0
 46 47  1  0  0  0  0
 47 48  2  0  0  0  0
 49 50  2  0  0  0  0
 49 51  1  0  0  0  0
 51 52  2  0  0  0  0
 51 53  1  0  0  0  0
 53 54  2  0  0  0  0
M  CHG  1  21   1
M  END
$$$$