
 OpenBabel11242000403D

 53 62  0  0  1  0  0  0  0  0999 V2000
   -2.7227  -15.6923    9.1028 O   0  0  0  0  0  0  0  0  0  0  0  0
   -3.4370  -15.2671   10.1945 C   0  0  0  0  0  0  0  0  0  0  0  0
   -4.1904  -14.1607   10.1833 C   0  0  0  0  0  0  0  0  0  0  0  0
   -4.2654  -13.3692    9.0496 O   0  0  0  0  0  0  0  0  0  0  0  0
   -5.5309  -12.7438    8.8639 C   0  0  2  0  0  0  0  0  0  0  0  0
   -5.5129  -11.9981    7.6321 O   0  0  0  0  0  0  0  0  0  0  0  0
   -5.8291  -12.6542    6.4483 C   0  0  0  0  0  0  0  0  0  0  0  0
   -5.4425  -12.1509    5.2543 C   0  0  0  0  0  0  0  0  0  0  0  0
   -5.7182  -12.7714    4.0409 O   0  0  0  0  0  0  0  0  0  0  0  0
   -6.4542  -13.9474    4.0287 C   0  0  0  0  0  0  0  0  0  0  0  0
   -6.9100  -14.5201    5.1554 C   0  0  0  0  0  0  0  0  0  0  0  0
   -6.6323  -13.9368    6.5022 C   0  0  0  0  0  0  0  0  0  0  0  0
   -7.6706  -15.8253    5.0984 C   0  0  3  0  0  0  0  0  0  0  0  0
   -8.9784  -15.6215    5.7050 N   0  0  0  0  0  0  0  0  0  0  0  0
   -9.8472  -16.6629    5.6766 C   0  0  0  0  0  0  0  0  0  0  0  0
  -10.6469  -16.9278    6.6431 N   0  0  0  0  0  0  0  0  0  0  0  0
   -9.8814  -17.3671    4.5267 N   0  0  0  0  0  0  0  0  0  0  0  0
   -8.7175  -17.6025    3.7074 C   0  0  0  0  0  0  0  0  0  0  0  0
   -7.8936  -16.3531    3.7068 C   0  0  0  0  0  0  0  0  0  0  0  0
   -7.4022  -15.7120    2.6220 C   0  0  0  0  0  0  0  0  0  0  0  0
   -6.6900  -14.5313    2.8120 N   0  0  0  0  0  0  0  0  0  0  0  0
   -7.5769  -16.1740    1.2337 C   0  0  3  0  0  0  0  0  0  0  0  0
   -6.6597  -17.1316    0.7236 N   0  0  0  0  0  0  0  0  0  0  0  0
   -6.5209  -15.9695    0.3013 N   0  0  0  0  0  0  0  0  0  0  0  0
   -4.5126  -11.0136    5.1228 C   0  0  0  0  0  0  0  0  0  0  0  0
   -3.1690  -11.3634    5.0694 C   0  0  0  0  0  0  0  0  0  0  0  0
   -2.2296  -10.4275    4.9569 N   0  3  0  0  0  0  0  0  0  0  0  0
   -0.9401  -10.8012    4.8556 F   0  0  0  0  0  0  0  0  0  0  0  0
   -2.5128   -9.1433    4.9331 N   0  0  0  0  0  0  0  0  0  0  0  0
   -3.7842   -8.7223    4.9719 C   0  0  0  0  0  0  0  0  0  0  0  0
   -4.8528   -9.6444    5.0316 C   0  0  0  0  0  0  0  0  0  0  0  0
   -6.1787   -9.1467    4.9686 C   0  0  0  0  0  0  0  0  0  0  0  0
   -6.4347   -7.7676    4.8662 C   0  0  0  0  0  0  0  0  0  0  0  0
   -5.3911   -6.8592    4.8913 C   0  0  0  0  0  0  0  0  0  0  0  0
   -4.0634   -7.3361    4.9375 C   0  0  0  0  0  0  0  0  0  0  0  0
   -2.6575   -6.1242    4.9408 P   0  0  0  0  0  0  0  0  0  0  0  0
   -5.5724   -5.5019    4.8695 O   0  0  0  0  0  0  0  0  0  0  0  0
   -6.8995   -4.9541    4.7155 C   0  0  1  0  0  0  0  0  0  0  0  0
   -7.9738   -5.8395    4.2454 C   0  0  0  0  0  0  0  0  0  0  0  0
   -8.8921   -5.4702    3.5329 O   0  0  0  0  0  0  0  0  0  0  0  0
   -7.8032   -7.2781    4.6633 C   0  0  0  0  0  0  0  0  0  0  0  0
   -8.7593   -8.0313    4.7499 O   0  0  0  0  0  0  0  0  0  0  0  0
   -7.2864   -3.9539    5.6245 O   0  0  0  0  0  0  0  0  0  0  0  0
   -6.9901   -3.5250    4.2560 C   0  0  1  0  0  0  0  0  0  0  0  0
   -5.5968   -3.0698    3.9889 O   0  0  0  0  0  0  0  0  0  0  0  0
   -6.4981   -2.1779    4.3334 C   0  0  0  0  0  0  0  0  0  0  0  0
   -6.8337   -1.1314    3.8303 O   0  0  0  0  0  0  0  0  0  0  0  0
   -5.8331  -11.8040   10.0189 C   0  0  0  0  0  0  0  0  0  0  0  0
   -6.2240  -10.6511    9.9151 O   0  0  0  0  0  0  0  0  0  0  0  0
   -5.6445  -12.4667   11.3641 C   0  0  0  0  0  0  0  0  0  0  0  0
   -6.0876  -11.9444   12.3734 O   0  0  0  0  0  0  0  0  0  0  0  0
   -4.9125  -13.7934   11.4367 C   0  0  0  0  0  0  0  0  0  0  0  0
   -4.9458  -14.4954   12.4327 O   0  0  0  0  0  0  0  0  0  0  0  0
  1  2  1  0  0  0  0
  2  3  2  0  0  0  0
  3  4  1  0  0  0  0
  3 52  1  0  0  0  0
  4  5  1  0  0  0  0
  5  6  1  6  0  0  0
  5 48  1  0  0  0  0
  6  7  1  0  0  0  0
  7  8  2  0  0  0  0
  7 12  1  0  0  0  0
  8  9  1  0  0  0  0
  8 25  1  0  0  0  0
  9 10  1  0  0  0  0
 10 11  2  0  0  0  0
 10 21  1  0  0  0  0
 11 12  1  0  0  0  0
 11 13  1  0  0  0  0
 13 14  1  0  0  0  0
 13 19  1  0  0  0  0
 14 15  1  0  0  0  0
 15 16  2  0  0  0  0
 15 17  1  0  0  0  0
 17 18  1  0  0  0  0
 18 19  1  0  0  0  0
 19 20  2  0  0  0  0
 20 21  1  0  0  0  0
 20 22  1  0  0  0  0
 22 23  1  0  0  0  0
 22 24  1  0  0  0  0
 23 24  2  0  0  0  0
 25 26  2  0  0  0  0
 25 31  1  0  0  0  0
 26 27  1  0  0  0  0
 27 28  1  0  0  0  0
 27 29  2  0  0  0  0
 29 30  1  0  0  0  0
 30 31  2  0  0  0  0
 30 35  1  0  0  0  0
 31 32  1  0  0  0  0
 32 33  2  0  0  0  0
 33 34  1  0  0  0  0
 33 41  1  0  0  0  0
 34 35  2  0  0  0  0
 34 37  1  0  0  0  0
 35 36  1  0  0  0  0
 38 37  1  1  0  0  0
 38 39  1  0  0  0  0
 38 43  1  0  0  0  0
 38 44  1  0  0  0  0
 39 40  2  0  0  0  0
 39 41  1  0  0  0  0
 41 42  2  0  0  0  0
 44 43  1  1  0  0  0
 44 45  1  0  0  0  0
 44 46  1  0  0  0  0
 45 46  1  0  0  0  0
 46 47  2  0  0  0  0
 48 49  2  0  0  0  0
 48 50  1  0  0  0  0
 50 51  2  0  0  0  0
 50 52  1  0  0  0  0
 52 53  2  0  0  0  0
M  CHG  1  27   1
M  END
$$$$