
 OpenBabel09212003573D

 48 54  0  0  1  0  0  0  0  0999 V2000
   -0.3607   -9.7892    7.3940 O   0  0  0  0  0  0  0  0  0  0  0  0
   -0.9429  -10.0936    8.6521 C   0  0  0  0  0  0  0  0  0  0  0  0
   -0.1639   -9.4301    9.8000 C   0  0  2  0  0  0  0  0  0  0  0  0
   -0.1607   -8.0033    9.6986 O   0  0  0  0  0  0  0  0  0  0  0  0
    0.7964   -7.4968    8.8635 C   0  0  0  0  0  0  0  0  0  0  0  0
    0.4891   -6.3070    8.2172 C   0  0  0  0  0  0  0  0  0  0  0  0
    1.3321   -5.8098    7.2103 C   0  0  0  0  0  0  0  0  0  0  0  0
    0.9349   -4.6945    6.4794 C   0  0  0  0  0  0  0  0  0  0  0  0
    1.6886   -4.3211    5.3855 C   0  0  0  0  0  0  0  0  0  0  0  0
    2.7911   -4.9805    4.9678 N   0  0  0  0  0  0  0  0  0  0  0  0
    3.2177   -6.0397    5.7109 C   0  0  0  0  0  0  0  0  0  0  0  0
    2.5341   -6.4849    6.8693 C   0  0  0  0  0  0  0  0  0  0  0  0
    2.9034   -7.5988    7.6529 C   0  0  0  0  0  0  0  0  0  0  0  0
    2.0191   -8.1088    8.6136 C   0  0  0  0  0  0  0  0  0  0  0  0
    2.3436   -9.3336    9.3388 C   0  0  0  0  0  0  0  0  0  0  0  0
    3.4994   -9.7301    9.4397 O   0  0  0  0  0  0  0  0  0  0  0  0
    1.1912  -10.0759    9.9745 C   0  0  0  0  0  0  0  0  0  0  0  0
    1.3647  -11.1404   10.5579 O   0  0  0  0  0  0  0  0  0  0  0  0
    4.4135   -6.7211    5.1477 C   0  0  0  0  0  0  0  0  0  0  0  0
    4.4318   -7.8150    4.3410 C   0  0  0  0  0  0  0  0  0  0  0  0
    3.3596   -8.5287    3.8237 O   0  0  0  0  0  0  0  0  0  0  0  0
    2.2191   -7.8346    3.3123 C   0  0  1  0  0  0  0  0  0  0  0  0
    1.8898   -8.2720    1.9728 O   0  0  0  0  0  0  0  0  0  0  0  0
    0.9631   -7.3758    1.3267 C   0  0  1  0  0  0  0  0  0  0  0  0
    0.4749   -7.9252   -0.0191 C   0  0  0  0  0  0  0  0  0  0  0  0
    1.5582   -8.0880   -0.9216 O   0  0  0  0  0  0  0  0  0  0  0  0
   -0.2996   -7.1918    2.1401 C   0  0  0  0  0  0  0  0  0  0  0  0
   -1.2488   -6.5042    1.8106 O   0  0  0  0  0  0  0  0  0  0  0  0
   -0.3097   -7.9537    3.4322 C   0  0  0  0  0  0  0  0  0  0  0  0
   -1.3462   -8.4177    3.8665 O   0  0  0  0  0  0  0  0  0  0  0  0
    0.9922   -8.1320    4.1724 C   0  0  0  0  0  0  0  0  0  0  0  0
    0.9740   -8.4315    5.3429 O   0  0  0  0  0  0  0  0  0  0  0  0
    5.7635   -8.4277    3.9382 C   0  0  0  0  0  0  0  0  0  0  0  0
    6.9706   -7.7673    4.5438 C   0  0  0  0  0  0  0  0  0  0  0  0
    6.8064   -6.6068    5.2867 C   0  0  0  0  0  0  0  0  0  0  0  0
    5.5719   -6.0733    5.5625 O   0  0  0  0  0  0  0  0  0  0  0  0
    7.8287   -5.9041    5.8262 N   0  0  0  0  0  0  0  0  0  0  0  0
    9.0882   -6.3618    5.5852 C   0  0  0  0  0  0  0  0  0  0  0  0
   10.1730   -5.4808    6.1116 C   0  0  0  0  0  0  0  0  0  0  0  0
   11.3076   -5.4243    5.6612 O   0  0  0  0  0  0  0  0  0  0  0  0
    9.7362   -4.7700    7.1748 O   0  0  0  0  0  0  0  0  0  0  0  0
    9.3697   -7.5512    4.9340 C   0  0  0  0  0  0  0  0  0  0  0  0
    8.2853   -8.2528    4.4041 C   0  0  0  0  0  0  0  0  0  0  0  0
    8.5579   -9.4650    3.7512 N   0  0  0  0  0  0  0  0  0  0  0  0
    9.7690  -10.0942    3.7631 C   0  0  0  0  0  0  0  0  0  0  0  0
    9.9258  -11.1967    3.2500 O   0  0  0  0  0  0  0  0  0  0  0  0
   10.7822   -9.4674    4.4091 N   0  0  0  0  0  0  0  0  0  0  0  0
   10.7611   -8.0705    4.7563 C   0  0  0  0  0  0  0  0  0  0  0  0
  1  2  1  0  0  0  0
  3  4  1  0  0  0  0
  3 17  1  0  0  0  0
  3  2  1  6  0  0  0
  4  5  1  0  0  0  0
  5  6  2  0  0  0  0
  5 14  1  0  0  0  0
  6  7  1  0  0  0  0
  7  8  2  0  0  0  0
  7 12  1  0  0  0  0
  8  9  1  0  0  0  0
  9 10  2  0  0  0  0
 10 11  1  0  0  0  0
 11 12  2  0  0  0  0
 11 19  1  0  0  0  0
 12 13  1  0  0  0  0
 13 14  2  0  0  0  0
 14 15  1  0  0  0  0
 15 16  2  0  0  0  0
 15 17  1  0  0  0  0
 17 18  2  0  0  0  0
 19 20  2  0  0  0  0
 19 36  1  0  0  0  0
 20 21  1  0  0  0  0
 20 33  1  0  0  0  0
 22 21  1  1  0  0  0
 22 23  1  0  0  0  0
 22 31  1  0  0  0  0
 23 24  1  0  0  0  0
 24 27  1  0  0  0  0
 24 25  1  6  0  0  0
 25 26  1  0  0  0  0
 27 28  2  0  0  0  0
 27 29  1  0  0  0  0
 29 30  2  0  0  0  0
 29 31  1  0  0  0  0
 31 32  2  0  0  0  0
 33 34  1  0  0  0  0
 34 35  2  0  0  0  0
 34 43  1  0  0  0  0
 35 36  1  0  0  0  0
 35 37  1  0  0  0  0
 37 38  2  0  0  0  0
 38 39  1  0  0  0  0
 38 42  1  0  0  0  0
 39 40  2  0  0  0  0
 39 41  1  0  0  0  0
 42 43  2  0  0  0  0
 42 48  1  0  0  0  0
 43 44  1  0  0  0  0
 44 45  1  0  0  0  0
 45 46  2  0  0  0  0
 45 47  1  0  0  0  0
 47 48  1  0  0  0  0
M  END
$$$$