
 OpenBabel11262008423D

 54 62  0  0  1  0  0  0  0  0999 V2000
    6.4899    1.1551    4.5062 F   0  0  0  0  0  0  0  0  0  0  0  0
    5.6492    1.7869    3.6646 C   0  0  0  0  0  0  0  0  0  0  0  0
    4.4087    1.3396    3.4670 C   0  0  0  0  0  0  0  0  0  0  0  0
    3.9581    0.2002    4.1147 O   0  0  0  0  0  0  0  0  0  0  0  0
    2.5689    0.2549    4.4223 C   0  0  2  0  0  0  0  0  0  0  0  0
    2.1658   -0.9191    5.1491 O   0  0  0  0  0  0  0  0  0  0  0  0
    2.7190   -1.1325    6.4002 C   0  0  0  0  0  0  0  0  0  0  0  0
    2.8411   -2.3883    6.8688 C   0  0  0  0  0  0  0  0  0  0  0  0
    3.3297   -2.6870    8.1381 O   0  0  0  0  0  0  0  0  0  0  0  0
    3.6547   -1.6415    9.0108 C   0  0  0  0  0  0  0  0  0  0  0  0
    3.5332   -0.3503    8.6399 C   0  0  0  0  0  0  0  0  0  0  0  0
    3.0868    0.0479    7.2594 C   0  0  0  0  0  0  0  0  0  0  0  0
    3.8667    0.7807    9.5828 C   0  0  3  0  0  0  0  0  0  0  0  0
    2.7318    1.6258    9.6901 O   0  0  0  0  0  0  0  0  0  0  0  0
    2.9252    2.7448   10.4472 C   0  0  0  0  0  0  0  0  0  0  0  0
    2.2200    3.7340   10.3337 O   0  0  0  0  0  0  0  0  0  0  0  0
    3.9895    2.6732   11.2852 O   0  0  0  0  0  0  0  0  0  0  0  0
    4.2112    1.4254   11.9240 C   0  0  3  0  0  0  0  0  0  0  0  0
    4.1363    0.2907   10.9568 C   0  0  0  0  0  0  0  0  0  0  0  0
    4.2463   -1.0223   11.2579 C   0  0  0  0  0  0  0  0  0  0  0  0
    4.0980   -1.9828   10.2698 O   0  3  0  0  0  0  0  0  0  0  0  0
    4.4621   -1.5476   12.6268 C   0  0  0  0  0  0  0  0  0  0  0  0
    3.3453   -1.9205   13.4453 O   0  0  0  0  0  0  0  0  0  0  0  0
    4.2101   -2.9379   12.9074 O   0  0  0  0  0  0  0  0  0  0  0  0
    5.5327    1.3975   12.4237 O   0  0  0  0  0  0  0  0  0  0  0  0
    2.4428   -3.5468    6.0410 C   0  0  0  0  0  0  0  0  0  0  0  0
    1.1089   -3.9504    6.0548 C   0  0  0  0  0  0  0  0  0  0  0  0
    0.6975   -4.9671    5.2889 N   0  3  0  0  0  0  0  0  0  0  0  0
   -0.5932   -5.3489    5.3407 F   0  0  0  0  0  0  0  0  0  0  0  0
    1.5105   -5.6163    4.4765 N   0  0  0  0  0  0  0  0  0  0  0  0
    2.7904   -5.2415    4.3738 C   0  0  0  0  0  0  0  0  0  0  0  0
    3.3239   -4.1989    5.1531 C   0  0  0  0  0  0  0  0  0  0  0  0
    4.6922   -3.8671    4.9964 C   0  0  0  0  0  0  0  0  0  0  0  0
    5.5032   -4.5535    4.0796 C   0  0  0  0  0  0  0  0  0  0  0  0
    6.9365   -4.2539    3.9897 C   0  0  0  0  0  0  0  0  0  0  0  0
    7.4505   -3.4753    4.7764 O   0  0  0  0  0  0  0  0  0  0  0  0
    7.7252   -4.9939    2.9287 C   0  0  0  0  0  0  0  0  0  0  0  0
    8.9435   -5.0491    2.9827 O   0  0  0  0  0  0  0  0  0  0  0  0
    6.8731   -5.6098    1.8410 C   0  0  1  0  0  0  0  0  0  0  0  0
    5.6753   -6.2342    2.3358 O   0  0  0  0  0  0  0  0  0  0  0  0
    4.9684   -5.5472    3.2813 C   0  0  0  0  0  0  0  0  0  0  0  0
    3.6269   -5.8908    3.4623 C   0  0  0  0  0  0  0  0  0  0  0  0
    3.1127   -6.8858    2.7221 F   0  0  0  0  0  0  0  0  0  0  0  0
    6.5380   -4.6110    0.7790 C   0  0  1  0  0  0  0  0  0  0  0  0
    5.8625   -3.3985    1.2111 O   0  0  0  0  0  0  0  0  0  0  0  0
    7.5150   -4.4483   -0.2389 O   0  0  0  0  0  0  0  0  0  0  0  0
    6.3327   -4.9664   -0.6298 C   0  0  0  0  0  0  0  0  0  0  0  0
    5.5077   -4.5195   -1.3991 O   0  0  0  0  0  0  0  0  0  0  0  0
    1.7479    0.2970    3.1471 C   0  0  0  0  0  0  0  0  0  0  0  0
    0.7909   -0.4243    2.9062 O   0  0  0  0  0  0  0  0  0  0  0  0
    2.2436    1.3537    2.1862 C   0  0  0  0  0  0  0  0  0  0  0  0
    1.6396    1.5837    1.1548 O   0  0  0  0  0  0  0  0  0  0  0  0
    3.5242    2.0941    2.5352 C   0  0  0  0  0  0  0  0  0  0  0  0
    3.7535    3.2224    2.1438 O   0  0  0  0  0  0  0  0  0  0  0  0
  1  2  1  0  0  0  0
  2  3  2  0  0  0  0
  3  4  1  0  0  0  0
  3 53  1  0  0  0  0
  4  5  1  0  0  0  0
  5  6  1  6  0  0  0
  5 49  1  0  0  0  0
  6  7  1  0  0  0  0
  7  8  2  0  0  0  0
  7 12  1  0  0  0  0
  8  9  1  0  0  0  0
  8 26  1  0  0  0  0
  9 10  1  0  0  0  0
 10 11  2  0  0  0  0
 10 21  1  0  0  0  0
 11 12  1  0  0  0  0
 11 13  1  0  0  0  0
 13 14  1  0  0  0  0
 13 19  1  0  0  0  0
 14 15  1  0  0  0  0
 15 16  2  0  0  0  0
 15 17  1  0  0  0  0
 17 18  1  0  0  0  0
 18 19  1  0  0  0  0
 18 25  1  0  0  0  0
 19 20  2  0  0  0  0
 20 21  1  0  0  0  0
 20 22  1  0  0  0  0
 22 23  1  0  0  0  0
 22 24  1  0  0  0  0
 23 24  1  0  0  0  0
 26 27  2  0  0  0  0
 26 32  1  0  0  0  0
 27 28  1  0  0  0  0
 28 29  1  0  0  0  0
 28 30  2  0  0  0  0
 30 31  1  0  0  0  0
 31 32  2  0  0  0  0
 31 42  1  0  0  0  0
 32 33  1  0  0  0  0
 33 34  2  0  0  0  0
 34 35  1  0  0  0  0
 34 41  1  0  0  0  0
 35 36  2  0  0  0  0
 35 37  1  0  0  0  0
 37 38  2  0  0  0  0
 39 37  1  1  0  0  0
 39 40  1  0  0  0  0
 39 44  1  0  0  0  0
 40 41  1  0  0  0  0
 41 42  2  0  0  0  0
 42 43  1  0  0  0  0
 44 45  1  1  0  0  0
 44 46  1  0  0  0  0
 44 47  1  0  0  0  0
 46 47  1  0  0  0  0
 47 48  2  0  0  0  0
 49 50  2  0  0  0  0
 49 51  1  0  0  0  0
 51 52  2  0  0  0  0
 51 53  1  0  0  0  0
 53 54  2  0  0  0  0
M  CHG  2  21   1  28   1
M  END
$$$$