
 OpenBabel12062000243D

 54 62  0  0  1  0  0  0  0  0999 V2000
   -1.6317    3.4178   -3.4519 O   0  0  0  0  0  0  0  0  0  0  0  0
   -1.2414    2.7273   -2.3313 C   0  0  0  0  0  0  0  0  0  0  0  0
   -0.2230    1.8571   -2.3297 C   0  0  0  0  0  0  0  0  0  0  0  0
    0.4573    1.5726   -3.5029 O   0  0  0  0  0  0  0  0  0  0  0  0
    1.8395    1.2890   -3.3374 C   0  0  2  0  0  0  0  0  0  0  0  0
    2.4446    0.9837   -4.6185 O   0  0  0  0  0  0  0  0  0  0  0  0
    2.4417    1.9957   -5.5669 C   0  0  0  0  0  0  0  0  0  0  0  0
    2.4020    1.7106   -6.8889 C   0  0  0  0  0  0  0  0  0  0  0  0
    2.4311    2.7332   -7.8605 O   0  0  0  0  0  0  0  0  0  0  0  0
    2.5416    4.0762   -7.4728 C   0  0  0  0  0  0  0  0  0  0  0  0
    2.6395    4.4160   -6.1758 C   0  0  0  0  0  0  0  0  0  0  0  0
    2.5810    3.4098   -5.0767 C   0  0  0  0  0  0  0  0  0  0  0  0
    2.7788    5.8393   -5.7225 C   0  0  3  0  0  0  0  0  0  0  0  0
    4.0580    5.9735   -5.1320 O   0  0  0  0  0  0  0  0  0  0  0  0
    4.4038    7.2078   -4.6742 C   0  0  0  0  0  0  0  0  0  0  0  0
    5.3331    7.3586   -3.8985 O   0  0  0  0  0  0  0  0  0  0  0  0
    3.6547    8.2394   -5.1311 O   0  0  0  0  0  0  0  0  0  0  0  0
    2.8614    8.1705   -6.3119 C   0  0  3  0  0  0  0  0  0  0  0  0
    2.7439    6.7898   -6.8514 C   0  0  0  0  0  0  0  0  0  0  0  0
    2.6229    6.3975   -8.1399 C   0  0  0  0  0  0  0  0  0  0  0  0
    2.5491    5.0427   -8.4573 O   0  3  0  0  0  0  0  0  0  0  0  0
    2.5648    7.3299   -9.2933 C   0  0  0  0  0  0  0  0  0  0  0  0
    3.5711    7.2890  -10.3141 O   0  0  0  0  0  0  0  0  0  0  0  0
    2.2353    6.8378  -10.6054 O   0  0  0  0  0  0  0  0  0  0  0  0
    1.5357    8.5414   -5.9883 O   0  0  0  0  0  0  0  0  0  0  0  0
    2.3514    0.2950   -7.4740 C   0  0  3  0  0  0  0  0  0  0  0  0
    3.5944   -0.4714   -7.0256 C   0  0  0  0  0  0  0  0  0  0  0  0
    3.4936   -1.5071   -6.2640 N   0  3  0  0  0  0  0  0  0  0  0  0
    4.6239   -2.1309   -5.8772 F   0  0  0  0  0  0  0  0  0  0  0  0
    2.3836   -1.9880   -5.8866 N   0  0  0  0  0  0  0  0  0  0  0  0
    1.1522   -1.5536   -6.3669 C   0  0  0  0  0  0  0  0  0  0  0  0
    1.0768   -0.4657   -7.1631 C   0  0  0  0  0  0  0  0  0  0  0  0
   -0.2079   -0.0429   -7.8398 C   0  0  0  0  0  0  0  0  0  0  0  0
   -1.3423   -1.0120   -7.6387 C   0  0  0  0  0  0  0  0  0  0  0  0
   -1.2856   -2.0998   -6.8539 C   0  0  0  0  0  0  0  0  0  0  0  0
   -0.0580   -2.4202   -6.0311 C   0  0  3  0  0  0  0  0  0  0  0  0
    0.3172   -3.7170   -6.2219 F   0  0  0  0  0  0  0  0  0  0  0  0
   -2.3052   -3.0037   -6.6890 O   0  0  0  0  0  0  0  0  0  0  0  0
   -3.4258   -2.9771   -7.5800 C   0  0  2  0  0  0  0  0  0  0  0  0
   -3.7956   -1.5785   -8.0129 C   0  0  0  0  0  0  0  0  0  0  0  0
   -4.9375   -1.1586   -8.1445 O   0  0  0  0  0  0  0  0  0  0  0  0
   -2.6086   -0.6976   -8.3296 C   0  0  0  0  0  0  0  0  0  0  0  0
   -2.6934    0.2536   -9.0908 O   0  0  0  0  0  0  0  0  0  0  0  0
   -4.6124   -3.6574   -6.9444 C   0  0  1  0  0  0  0  0  0  0  0  0
   -5.8066   -3.7643   -7.7454 O   0  0  0  0  0  0  0  0  0  0  0  0
   -4.3200   -4.8008   -6.1328 O   0  0  0  0  0  0  0  0  0  0  0  0
   -4.7770   -3.7051   -5.5007 C   0  0  0  0  0  0  0  0  0  0  0  0
   -4.2779   -3.0228   -4.6237 O   0  0  0  0  0  0  0  0  0  0  0  0
    2.0283    0.0874   -2.4367 C   0  0  0  0  0  0  0  0  0  0  0  0
    2.6792   -0.9089   -2.7221 O   0  0  0  0  0  0  0  0  0  0  0  0
    1.3117    0.2502   -1.1182 C   0  0  0  0  0  0  0  0  0  0  0  0
    1.7326   -0.3274   -0.1315 O   0  0  0  0  0  0  0  0  0  0  0  0
    0.1185    1.1850   -1.0409 C   0  0  0  0  0  0  0  0  0  0  0  0
   -0.4802    1.3797    0.0041 O   0  0  0  0  0  0  0  0  0  0  0  0
  1  2  1  0  0  0  0
  2  3  2  0  0  0  0
  3  4  1  0  0  0  0
  3 53  1  0  0  0  0
  4  5  1  0  0  0  0
  5  6  1  6  0  0  0
  5 49  1  0  0  0  0
  6  7  1  0  0  0  0
  7  8  2  0  0  0  0
  7 12  1  0  0  0  0
  8  9  1  0  0  0  0
  8 26  1  0  0  0  0
  9 10  1  0  0  0  0
 10 11  2  0  0  0  0
 10 21  1  0  0  0  0
 11 12  1  0  0  0  0
 11 13  1  0  0  0  0
 13 14  1  0  0  0  0
 13 19  1  0  0  0  0
 14 15  1  0  0  0  0
 15 16  2  0  0  0  0
 15 17  1  0  0  0  0
 17 18  1  0  0  0  0
 18 19  1  0  0  0  0
 18 25  1  0  0  0  0
 19 20  2  0  0  0  0
 20 21  1  0  0  0  0
 20 22  1  0  0  0  0
 22 23  1  0  0  0  0
 22 24  1  0  0  0  0
 23 24  1  0  0  0  0
 26 27  1  0  0  0  0
 26 32  1  0  0  0  0
 27 28  2  0  0  0  0
 28 29  1  0  0  0  0
 28 30  1  0  0  0  0
 30 31  1  0  0  0  0
 31 32  2  0  0  0  0
 31 36  1  0  0  0  0
 32 33  1  0  0  0  0
 33 34  1  0  0  0  0
 34 35  2  0  0  0  0
 34 42  1  0  0  0  0
 35 36  1  0  0  0  0
 35 38  1  0  0  0  0
 36 37  1  0  0  0  0
 39 38  1  1  0  0  0
 39 40  1  0  0  0  0
 39 44  1  0  0  0  0
 40 41  2  0  0  0  0
 40 42  1  0  0  0  0
 42 43  2  0  0  0  0
 44 45  1  6  0  0  0
 44 46  1  0  0  0  0
 44 47  1  0  0  0  0
 46 47  1  0  0  0  0
 47 48  2  0  0  0  0
 49 50  2  0  0  0  0
 49 51  1  0  0  0  0
 51 52  2  0  0  0  0
 51 53  1  0  0  0  0
 53 54  2  0  0  0  0
M  CHG  2  21   1  28   1
M  END
$$$$