
 OpenBabel11262000413D

 53 61  0  0  1  0  0  0  0  0999 V2000
   -2.3650    4.8999   -3.3358 O   0  0  0  0  0  0  0  0  0  0  0  0
   -2.3574    3.7401   -2.5989 C   0  0  0  0  0  0  0  0  0  0  0  0
   -1.3300    2.8846   -2.6133 C   0  0  0  0  0  0  0  0  0  0  0  0
   -0.2254    3.1242   -3.4136 O   0  0  0  0  0  0  0  0  0  0  0  0
    0.9690    2.7900   -2.7190 C   0  0  2  0  0  0  0  0  0  0  0  0
    2.1156    3.2269   -3.4966 O   0  0  0  0  0  0  0  0  0  0  0  0
    2.2096    4.5874   -3.7677 C   0  0  0  0  0  0  0  0  0  0  0  0
    2.8316    5.0179   -4.8851 C   0  0  0  0  0  0  0  0  0  0  0  0
    2.9744    6.3810   -5.2007 O   0  0  0  0  0  0  0  0  0  0  0  0
    2.4899    7.3612   -4.2991 C   0  0  0  0  0  0  0  0  0  0  0  0
    1.8851    6.9972   -3.1512 C   0  0  0  0  0  0  0  0  0  0  0  0
    1.6462    5.5671   -2.7697 C   0  0  0  0  0  0  0  0  0  0  0  0
    1.3626    8.0043   -2.1563 C   0  0  3  0  0  0  0  0  0  0  0  0
    2.0376    7.7835   -0.9267 O   0  0  0  0  0  0  0  0  0  0  0  0
    1.6027    8.5702    0.0830 C   0  0  0  0  0  0  0  0  0  0  0  0
    1.7616    8.2230    1.2989 N   0  0  0  0  0  0  0  0  0  0  0  0
    0.9677    9.7071   -0.2584 O   0  0  0  0  0  0  0  0  0  0  0  0
    1.2904   10.3739   -1.4881 C   0  0  0  0  0  0  0  0  0  0  0  0
    1.6551    9.3993   -2.5679 C   0  0  0  0  0  0  0  0  0  0  0  0
    2.2524    9.7058   -3.7396 C   0  0  0  0  0  0  0  0  0  0  0  0
    2.6439    8.7017   -4.6202 O   0  3  0  0  0  0  0  0  0  0  0  0
    2.5841   11.0924   -4.1494 C   0  0  0  0  0  0  0  0  0  0  0  0
    3.8763   11.6457   -3.8756 O   0  0  0  0  0  0  0  0  0  0  0  0
    3.5063   11.3221   -5.2297 O   0  0  0  0  0  0  0  0  0  0  0  0
    3.4002    4.0339   -5.8568 C   0  0  0  0  0  0  0  0  0  0  0  0
    4.7267    3.6077   -5.7019 C   0  0  0  0  0  0  0  0  0  0  0  0
    5.2212    2.6551   -6.4998 N   0  3  0  0  0  0  0  0  0  0  0  0
    6.5086    2.2746   -6.3608 F   0  0  0  0  0  0  0  0  0  0  0  0
    4.4893    2.0636   -7.4222 N   0  0  0  0  0  0  0  0  0  0  0  0
    3.1996    2.4193   -7.5671 C   0  0  0  0  0  0  0  0  0  0  0  0
    2.6214    3.4384   -6.8199 N   0  3  0  0  0  0  0  0  0  0  0  0
    1.3201    3.7791   -7.0471 C   0  0  0  0  0  0  0  0  0  0  0  0
    0.5296    3.0724   -7.9482 C   0  0  0  0  0  0  0  0  0  0  0  0
   -0.8838    3.3969   -8.0611 C   0  0  0  0  0  0  0  0  0  0  0  0
   -1.2977    4.3885   -7.4876 O   0  0  0  0  0  0  0  0  0  0  0  0
   -1.7407    2.4509   -8.8710 C   0  0  0  0  0  0  0  0  0  0  0  0
   -2.8212    2.8203   -9.2941 O   0  0  0  0  0  0  0  0  0  0  0  0
   -1.1250    1.0783   -9.0616 C   0  0  1  0  0  0  0  0  0  0  0  0
    0.2860    1.1634   -9.3982 O   0  0  0  0  0  0  0  0  0  0  0  0
    1.0478    2.0093   -8.6467 C   0  0  0  0  0  0  0  0  0  0  0  0
    2.3992    1.7306   -8.4881 C   0  0  0  0  0  0  0  0  0  0  0  0
    2.9440    0.7208   -9.1813 F   0  0  0  0  0  0  0  0  0  0  0  0
   -1.4119    0.1730   -7.8818 C   0  0  1  0  0  0  0  0  0  0  0  0
   -2.7962   -0.0848   -7.6067 O   0  0  0  0  0  0  0  0  0  0  0  0
   -0.5118   -0.9220   -7.6947 O   0  0  0  0  0  0  0  0  0  0  0  0
   -0.5216    0.0118   -6.7273 C   0  0  0  0  0  0  0  0  0  0  0  0
    0.3573    0.7357   -6.2989 O   0  0  0  0  0  0  0  0  0  0  0  0
    1.0026    1.2734   -2.5511 C   0  0  0  0  0  0  0  0  0  0  0  0
    1.9939    0.6214   -2.8902 O   0  0  0  0  0  0  0  0  0  0  0  0
   -0.2553    0.6552   -1.9614 C   0  0  3  0  0  0  0  0  0  0  0  0
   -1.3627    1.6675   -1.7364 C   0  0  0  0  0  0  0  0  0  0  0  0
   -2.2430    1.5188   -0.8959 O   0  0  0  0  0  0  0  0  0  0  0  0
   -0.6945   -0.3608   -2.7614 F   0  0  0  0  0  0  0  0  0  0  0  0
  1  2  1  0  0  0  0
  2  3  2  0  0  0  0
  3  4  1  0  0  0  0
  3 51  1  0  0  0  0
  4  5  1  0  0  0  0
  5  6  1  6  0  0  0
  5 48  1  0  0  0  0
  6  7  1  0  0  0  0
  7  8  2  0  0  0  0
  7 12  1  0  0  0  0
  8  9  1  0  0  0  0
  8 25  1  0  0  0  0
  9 10  1  0  0  0  0
 10 11  2  0  0  0  0
 10 21  1  0  0  0  0
 11 12  1  0  0  0  0
 11 13  1  0  0  0  0
 13 14  1  0  0  0  0
 13 19  1  0  0  0  0
 14 15  1  0  0  0  0
 15 16  2  0  0  0  0
 15 17  1  0  0  0  0
 17 18  1  0  0  0  0
 18 19  1  0  0  0  0
 19 20  2  0  0  0  0
 20 21  1  0  0  0  0
 20 22  1  0  0  0  0
 22 23  1  0  0  0  0
 22 24  1  0  0  0  0
 23 24  1  0  0  0  0
 25 26  2  0  0  0  0
 25 31  1  0  0  0  0
 26 27  1  0  0  0  0
 27 28  1  0  0  0  0
 27 29  2  0  0  0  0
 29 30  1  0  0  0  0
 30 31  2  0  0  0  0
 30 41  1  0  0  0  0
 31 32  1  0  0  0  0
 32 33  2  0  0  0  0
 33 34  1  0  0  0  0
 33 40  1  0  0  0  0
 34 35  2  0  0  0  0
 34 36  1  0  0  0  0
 36 37  2  0  0  0  0
 38 36  1  1  0  0  0
 38 39  1  0  0  0  0
 38 43  1  0  0  0  0
 39 40  1  0  0  0  0
 40 41  2  0  0  0  0
 41 42  1  0  0  0  0
 43 44  1  1  0  0  0
 43 45  1  0  0  0  0
 43 46  1  0  0  0  0
 45 46  1  0  0  0  0
 46 47  2  0  0  0  0
 48 49  2  0  0  0  0
 48 50  1  0  0  0  0
 50 51  1  0  0  0  0
 50 53  1  0  0  0  0
 51 52  2  0  0  0  0
M  CHG  3  21   1  27   1  31   1
M  END
$$$$