
 OpenBabel11232002193D

 53 62  0  0  1  0  0  0  0  0999 V2000
   17.2456   -0.5574  -14.3261 O   0  0  0  0  0  0  0  0  0  0  0  0
   17.5194   -0.9032  -13.0275 C   0  0  0  0  0  0  0  0  0  0  0  0
   16.5912   -0.8563  -12.0660 C   0  0  0  0  0  0  0  0  0  0  0  0
   15.3076   -0.4356  -12.3535 O   0  0  0  0  0  0  0  0  0  0  0  0
   14.2919   -0.9467  -11.4982 C   0  0  2  0  0  0  0  0  0  0  0  0
   12.9802   -0.5599  -11.9534 O   0  0  0  0  0  0  0  0  0  0  0  0
   12.6114    0.7782  -11.9239 C   0  0  0  0  0  0  0  0  0  0  0  0
   11.3317    1.1514  -11.6890 C   0  0  0  0  0  0  0  0  0  0  0  0
   10.9571    2.4986  -11.7398 O   0  0  0  0  0  0  0  0  0  0  0  0
   11.7751    3.4338  -12.3568 C   0  0  0  0  0  0  0  0  0  0  0  0
   13.0696    3.1634  -12.5964 C   0  0  0  0  0  0  0  0  0  0  0  0
   13.6511    1.8129  -12.2913 C   0  0  0  0  0  0  0  0  0  0  0  0
   13.9915    4.1850  -13.1967 C   0  0  3  0  0  0  0  0  0  0  0  0
   14.6391    3.6266  -14.3286 O   0  0  0  0  0  0  0  0  0  0  0  0
   15.6103    4.4205  -14.8606 C   0  0  0  0  0  0  0  0  0  0  0  0
   16.5438    3.9777  -15.5064 O   0  0  0  0  0  0  0  0  0  0  0  0
   15.4625    5.7395  -14.5680 O   0  0  0  0  0  0  0  0  0  0  0  0
   14.1281    6.2236  -14.5473 C   0  0  3  0  0  0  0  0  0  0  0  0
   13.2458    5.3683  -13.6963 C   0  0  0  0  0  0  0  0  0  0  0  0
   11.9263    5.5616  -13.4561 C   0  0  0  0  0  0  0  0  0  0  0  0
   11.2004    4.6348  -12.7171 O   0  3  0  0  0  0  0  0  0  0  0  0
   11.1614    6.7153  -13.9861 C   0  0  0  0  0  0  0  0  0  0  0  0
   10.5119    6.6408  -15.2620 O   0  0  0  0  0  0  0  0  0  0  0  0
    9.7263    6.6760  -14.0548 O   0  0  0  0  0  0  0  0  0  0  0  0
   14.1295    7.5070  -13.9563 O   0  0  0  0  0  0  0  0  0  0  0  0
   10.1986    0.2210  -11.3687 C   0  0  0  0  0  0  0  0  0  0  0  0
   10.4224   -0.9030  -10.5841 C   0  0  0  0  0  0  0  0  0  0  0  0
    9.4578   -1.7734  -10.2357 N   0  0  0  0  0  0  0  0  0  0  0  0
    8.1710   -1.5389  -10.6121 N   0  0  0  0  0  0  0  0  0  0  0  0
    7.8422   -0.4453  -11.3089 C   0  0  0  0  0  0  0  0  0  0  0  0
    8.8417    0.4603  -11.7395 C   0  0  0  0  0  0  0  0  0  0  0  0
    8.4172    1.5803  -12.4851 C   0  0  0  0  0  0  0  0  0  0  0  0
    7.0723    1.9010  -12.6252 C   0  0  0  0  0  0  0  0  0  0  0  0
    6.0980    1.0183  -12.1928 C   0  0  0  0  0  0  0  0  0  0  0  0
    6.4978   -0.1686  -11.5837 C   0  0  0  0  0  0  0  0  0  0  0  0
    5.5490   -1.0288  -11.1786 F   0  0  0  0  0  0  0  0  0  0  0  0
    4.7545    1.2774  -12.3330 O   0  0  0  0  0  0  0  0  0  0  0  0
    4.4464    2.6910  -12.2756 C   0  0  1  0  0  0  0  0  0  0  0  0
    5.2374    3.5458  -13.1733 C   0  0  0  0  0  0  0  0  0  0  0  0
    4.7968    4.5361  -13.8751 N   0  0  0  0  0  0  0  0  0  0  0  0
    6.7039    3.2280  -13.1337 C   0  0  0  0  0  0  0  0  0  0  0  0
    7.5917    4.1352  -13.4522 N   0  0  0  0  0  0  0  0  0  0  0  0
    3.1117    3.0593  -12.0579 O   0  0  0  0  0  0  0  0  0  0  0  0
    4.0483    3.2918  -10.9564 C   0  0  1  0  0  0  0  0  0  0  0  0
    4.2310    2.2415   -9.9401 O   0  0  0  0  0  0  0  0  0  0  0  0
    3.2882    3.1344   -9.7410 C   0  0  0  0  0  0  0  0  0  0  0  0
    3.0819    3.8888   -8.8121 O   0  0  0  0  0  0  0  0  0  0  0  0
   14.5413   -0.6045  -10.0313 C   0  0  0  0  0  0  0  0  0  0  0  0
   13.6879   -0.2432   -9.2325 O   0  0  0  0  0  0  0  0  0  0  0  0
   15.9942   -0.7189   -9.6408 C   0  0  0  0  0  0  0  0  0  0  0  0
   16.3641   -0.3570   -8.5356 O   0  0  0  0  0  0  0  0  0  0  0  0
   16.9956   -1.1865  -10.6738 C   0  0  0  0  0  0  0  0  0  0  0  0
   18.0188   -1.7698  -10.3667 O   0  0  0  0  0  0  0  0  0  0  0  0
  1  2  1  0  0  0  0
  2  3  2  0  0  0  0
  3  4  1  0  0  0  0
  3 52  1  0  0  0  0
  4  5  1  0  0  0  0
  5  6  1  6  0  0  0
  5 48  1  0  0  0  0
  6  7  1  0  0  0  0
  7  8  2  0  0  0  0
  7 12  1  0  0  0  0
  8  9  1  0  0  0  0
  8 26  1  0  0  0  0
  9 10  1  0  0  0  0
 10 11  2  0  0  0  0
 10 21  1  0  0  0  0
 11 12  1  0  0  0  0
 11 13  1  0  0  0  0
 13 14  1  0  0  0  0
 13 19  1  0  0  0  0
 14 15  1  0  0  0  0
 15 16  2  0  0  0  0
 15 17  1  0  0  0  0
 17 18  1  0  0  0  0
 18 19  1  0  0  0  0
 18 25  1  0  0  0  0
 19 20  2  0  0  0  0
 20 21  1  0  0  0  0
 20 22  1  0  0  0  0
 22 23  1  0  0  0  0
 22 24  1  0  0  0  0
 23 24  1  0  0  0  0
 26 27  2  0  0  0  0
 26 31  1  0  0  0  0
 27 28  1  0  0  0  0
 28 29  2  0  0  0  0
 29 30  1  0  0  0  0
 30 31  2  0  0  0  0
 30 35  1  0  0  0  0
 31 32  1  0  0  0  0
 32 33  2  0  0  0  0
 33 34  1  0  0  0  0
 33 41  1  0  0  0  0
 34 35  2  0  0  0  0
 34 37  1  0  0  0  0
 35 36  1  0  0  0  0
 38 37  1  6  0  0  0
 38 39  1  0  0  0  0
 38 43  1  0  0  0  0
 38 44  1  0  0  0  0
 39 40  2  0  0  0  0
 39 41  1  0  0  0  0
 41 42  2  0  0  0  0
 44 43  1  6  0  0  0
 44 45  1  0  0  0  0
 44 46  1  0  0  0  0
 45 46  1  0  0  0  0
 46 47  2  0  0  0  0
 48 49  2  0  0  0  0
 48 50  1  0  0  0  0
 50 51  2  0  0  0  0
 50 52  1  0  0  0  0
 52 53  2  0  0  0  0
M  CHG  1  21   1
M  END
$$$$