
 OpenBabel11242001233D

 54 62  0  0  1  0  0  0  0  0999 V2000
    3.2023   -6.8471   -4.8180 O   0  0  0  0  0  0  0  0  0  0  0  0
    2.4311   -6.7334   -3.6920 C   0  0  0  0  0  0  0  0  0  0  0  0
    2.2122   -5.5647   -3.0760 C   0  0  0  0  0  0  0  0  0  0  0  0
    2.8098   -4.3924   -3.5121 O   0  0  0  0  0  0  0  0  0  0  0  0
    1.9306   -3.2773   -3.5308 C   0  0  2  0  0  0  0  0  0  0  0  0
    2.5684   -2.1016   -4.0693 O   0  0  0  0  0  0  0  0  0  0  0  0
    2.5058   -1.9277   -5.4499 C   0  0  0  0  0  0  0  0  0  0  0  0
    2.5838   -0.6969   -5.9996 C   0  0  0  0  0  0  0  0  0  0  0  0
    2.5737   -0.4530   -7.3716 O   0  0  0  0  0  0  0  0  0  0  0  0
    2.7939   -1.5180   -8.2193 C   0  0  0  0  0  0  0  0  0  0  0  0
    2.7319   -2.8297   -7.7721 C   0  0  0  0  0  0  0  0  0  0  0  0
    2.3619   -3.1289   -6.3516 C   0  0  0  0  0  0  0  0  0  0  0  0
    3.0186   -3.8616   -8.6692 C   0  0  0  0  0  0  0  0  0  0  0  0
    2.9782   -5.1642   -8.1647 O   0  0  0  0  0  0  0  0  0  0  0  0
    3.2571   -6.2964   -8.9165 C   0  0  0  0  0  0  0  0  0  0  0  0
    3.2066   -7.4112   -8.4109 O   0  0  0  0  0  0  0  0  0  0  0  0
    3.5203   -6.1053  -10.2273 O   0  0  0  0  0  0  0  0  0  0  0  0
    3.7296   -4.8265  -10.8207 C   0  0  3  0  0  0  0  0  0  0  0  0
    3.3708   -3.6346   -9.9869 C   0  0  0  0  0  0  0  0  0  0  0  0
    3.4149   -2.3010  -10.4677 C   0  0  0  0  0  0  0  0  0  0  0  0
    3.1190   -1.2569   -9.5526 C   0  0  0  0  0  0  0  0  0  0  0  0
    3.7785   -1.9806  -11.9030 C   0  0  0  0  0  0  0  0  0  0  0  0
    2.6957   -1.9423  -12.8453 O   0  0  0  0  0  0  0  0  0  0  0  0
    3.3514   -0.7219  -12.4500 O   0  0  0  0  0  0  0  0  0  0  0  0
    5.1034   -4.7233  -11.1590 O   0  0  0  0  0  0  0  0  0  0  0  0
    2.5800    0.5322   -5.1877 C   0  0  0  0  0  0  0  0  0  0  0  0
    1.3429    1.0682   -4.8506 C   0  0  0  0  0  0  0  0  0  0  0  0
    1.2607    2.1926   -4.1349 N   0  3  0  0  0  0  0  0  0  0  0  0
    0.0457    2.6848   -3.8267 F   0  0  0  0  0  0  0  0  0  0  0  0
    2.3274    2.8560   -3.7283 N   0  0  0  0  0  0  0  0  0  0  0  0
    3.5481    2.3885   -4.0172 C   0  0  0  0  0  0  0  0  0  0  0  0
    3.7371    1.2026   -4.7500 C   0  0  0  0  0  0  0  0  0  0  0  0
    5.0573    0.7627   -5.0060 C   0  0  0  0  0  0  0  0  0  0  0  0
    6.1613    1.4967   -4.5483 C   0  0  0  0  0  0  0  0  0  0  0  0
    7.5225    1.0417   -4.8370 C   0  0  0  0  0  0  0  0  0  0  0  0
    7.7525   -0.0730   -5.2713 O   0  0  0  0  0  0  0  0  0  0  0  0
    8.6162    2.0426   -4.5660 C   0  0  0  0  0  0  0  0  0  0  0  0
    9.6004    2.1002   -5.2854 O   0  0  0  0  0  0  0  0  0  0  0  0
    8.3385    2.9320   -3.3802 C   0  0  1  0  0  0  0  0  0  0  0  0
    6.9933    3.4389   -3.3328 O   0  0  0  0  0  0  0  0  0  0  0  0
    5.9829    2.6649   -3.8283 C   0  0  0  0  0  0  0  0  0  0  0  0
    4.6744    3.0930   -3.5845 C   0  0  0  0  0  0  0  0  0  0  0  0
    4.4865    4.2314   -2.8959 F   0  0  0  0  0  0  0  0  0  0  0  0
    8.6890    2.2490   -2.0864 C   0  0  1  0  0  0  0  0  0  0  0  0
    8.0038    1.0085   -1.8006 O   0  0  0  0  0  0  0  0  0  0  0  0
   10.0756    2.2458   -1.7397 O   0  0  0  0  0  0  0  0  0  0  0  0
    9.2615    2.9811   -0.9717 C   0  0  0  0  0  0  0  0  0  0  0  0
    9.2801    4.1684   -0.6921 O   0  0  0  0  0  0  0  0  0  0  0  0
    1.4029   -2.9713   -2.1369 C   0  0  0  0  0  0  0  0  0  0  0  0
    1.3096   -1.8564   -1.6395 O   0  0  0  0  0  0  0  0  0  0  0  0
    0.8526   -4.1979   -1.4496 C   0  0  0  0  0  0  0  0  0  0  0  0
   -0.0255   -4.0720   -0.6101 O   0  0  0  0  0  0  0  0  0  0  0  0
    1.3075   -5.5728   -1.8921 C   0  0  0  0  0  0  0  0  0  0  0  0
    0.9116   -6.5850   -1.3396 O   0  0  0  0  0  0  0  0  0  0  0  0
  1  2  1  0  0  0  0
  2  3  2  0  0  0  0
  3  4  1  0  0  0  0
  3 53  1  0  0  0  0
  4  5  1  0  0  0  0
  5  6  1  1  0  0  0
  5 49  1  0  0  0  0
  6  7  1  0  0  0  0
  7  8  2  0  0  0  0
  7 12  1  0  0  0  0
  8  9  1  0  0  0  0
  8 26  1  0  0  0  0
  9 10  1  0  0  0  0
 10 11  2  0  0  0  0
 10 21  1  0  0  0  0
 11 12  1  0  0  0  0
 11 13  1  0  0  0  0
 13 14  1  0  0  0  0
 13 19  2  0  0  0  0
 14 15  1  0  0  0  0
 15 16  2  0  0  0  0
 15 17  1  0  0  0  0
 17 18  1  0  0  0  0
 18 19  1  0  0  0  0
 18 25  1  0  0  0  0
 19 20  1  0  0  0  0
 20 21  2  0  0  0  0
 20 22  1  0  0  0  0
 22 23  1  0  0  0  0
 22 24  1  0  0  0  0
 23 24  1  0  0  0  0
 26 27  2  0  0  0  0
 26 32  1  0  0  0  0
 27 28  1  0  0  0  0
 28 29  1  0  0  0  0
 28 30  2  0  0  0  0
 30 31  1  0  0  0  0
 31 32  2  0  0  0  0
 31 42  1  0  0  0  0
 32 33  1  0  0  0  0
 33 34  2  0  0  0  0
 34 35  1  0  0  0  0
 34 41  1  0  0  0  0
 35 36  2  0  0  0  0
 35 37  1  0  0  0  0
 37 38  2  0  0  0  0
 39 37  1  6  0  0  0
 39 40  1  0  0  0  0
 39 44  1  0  0  0  0
 40 41  1  0  0  0  0
 41 42  2  0  0  0  0
 42 43  1  0  0  0  0
 44 45  1  1  0  0  0
 44 46  1  0  0  0  0
 44 47  1  0  0  0  0
 46 47  1  0  0  0  0
 47 48  2  0  0  0  0
 49 50  2  0  0  0  0
 49 51  1  0  0  0  0
 51 52  2  0  0  0  0
 51 53  1  0  0  0  0
 53 54  2  0  0  0  0
M  CHG  1  28   1
M  END
$$$$