
 OpenBabel09212019363D

 82 92  0  0  1  0  0  0  0  0999 V2000
    0.5810    0.7735   -2.4896 C   0  0  0  0  0  0  0  0  0  0  0  0
    1.5054    1.0363   -1.3118 C   0  0  0  0  0  0  0  0  0  0  0  0
    1.1338    1.6124   -0.2926 O   0  0  0  0  0  0  0  0  0  0  0  0
    2.7870    0.5634   -1.5057 N   0  0  0  0  0  0  0  0  0  0  0  0
    3.9590    0.8349   -0.6219 C   0  0  2  0  0  0  0  0  0  0  0  0
    5.2789    0.9617   -1.4818 C   0  0  2  0  0  0  0  0  0  0  0  0
    6.0236   -0.2686   -1.5792 O   0  0  0  0  0  0  0  0  0  0  0  0
    5.3315   -1.5048   -1.3587 C   0  0  2  0  0  0  0  0  0  0  0  0
    4.6523   -1.5976    0.0214 C   0  0  1  0  0  0  0  0  0  0  0  0
    4.1928   -0.2185    0.4984 C   0  0  2  0  0  0  0  0  0  0  0  0
    3.2057   -0.2406    1.5374 O   0  0  0  0  0  0  0  0  0  0  0  0
    2.5886   -1.4443    1.7824 C   0  0  0  0  0  0  0  0  0  0  0  0
    2.7336   -2.5442    1.0212 C   0  0  0  0  0  0  0  0  0  0  0  0
    3.6308   -2.6150   -0.0293 O   0  0  0  0  0  0  0  0  0  0  0  0
    1.7887   -3.6972    1.2371 C   0  0  0  0  0  0  0  0  0  0  0  0
    2.0469   -4.8672    1.0347 O   0  0  0  0  0  0  0  0  0  0  0  0
    0.4020   -3.2534    1.6837 C   0  0  0  0  0  0  0  0  0  0  0  0
   -0.6040   -3.6318    1.1164 O   0  0  0  0  0  0  0  0  0  0  0  0
    0.3742   -2.1674    2.7343 C   0  0  0  0  0  0  0  0  0  0  0  0
   -0.6350   -1.8069    3.2948 O   0  0  0  0  0  0  0  0  0  0  0  0
    1.7231   -1.5381    2.9970 C   0  0  0  0  0  0  0  0  0  0  0  0
    2.1077   -1.2908    4.1238 O   0  0  0  0  0  0  0  0  0  0  0  0
    6.3238   -2.6717   -1.5321 C   0  0  0  0  0  0  0  0  0  0  0  0
    7.5984   -2.7331   -0.2668 P   0  0  3  0  0  0  0  0  0  0  0  0
    7.3277   -3.5216    0.9714 O   0  0  0  0  0  0  0  0  0  0  0  0
    9.0011   -3.0155   -1.0009 O   0  0  0  0  0  0  0  0  0  0  0  0
    9.4978   -4.3506   -1.1975 C   0  0  3  0  0  0  0  0  0  0  0  0
    8.5198   -5.2216   -1.9932 C   0  0  2  0  0  0  0  0  0  0  0  0
    7.4448   -5.6356   -1.1403 O   0  0  0  0  0  0  0  0  0  0  0  0
    9.1685   -6.4834   -2.5494 C   0  0  1  0  0  0  0  0  0  0  0  0
    8.1997   -7.1737   -3.3516 O   0  0  0  0  0  0  0  0  0  0  0  0
   10.4328   -6.2204   -3.3624 C   0  0  1  0  0  0  0  0  0  0  0  0
   11.4476   -5.5056   -2.4476 C   0  0  2  0  0  0  0  0  0  0  0  0
   10.8324   -4.1790   -1.9499 C   0  0  2  0  0  0  0  0  0  0  0  0
   11.7799   -3.5041   -1.1045 O   0  0  0  0  0  0  0  0  0  0  0  0
   12.6541   -5.2113   -3.1662 O   0  0  0  0  0  0  0  0  0  0  0  0
   10.8277   -7.5215   -3.8353 O   0  0  0  0  0  0  0  0  0  0  0  0
    7.7930   -1.1810    0.1162 O   0  0  0  0  0  0  0  0  0  0  0  0
    6.1519    1.9797   -0.9147 O   0  0  0  0  0  0  0  0  0  0  0  0
    6.5198    3.1401   -1.6136 C   0  0  0  0  0  0  0  0  0  0  0  0
    7.0904    4.1917   -0.9819 C   0  0  0  0  0  0  0  0  0  0  0  0
    7.4033    5.4114   -1.5813 O   0  0  0  0  0  0  0  0  0  0  0  0
    7.2953    5.5377   -2.9526 C   0  0  0  0  0  0  0  0  0  0  0  0
    6.9121    4.4637   -3.7407 C   0  0  0  0  0  0  0  0  0  0  0  0
    6.2808    3.2712   -3.0855 C   0  0  3  0  0  0  0  0  0  0  0  0
    4.8713    3.4322   -3.2612 O   0  0  0  0  0  0  0  0  0  0  0  0
    6.9629    4.6380   -5.1301 C   0  0  0  0  0  0  0  0  0  0  0  0
    6.6698    3.5847   -6.0063 N   0  0  0  0  0  0  0  0  0  0  0  0
    6.4862    3.7258   -7.3465 C   0  0  0  0  0  0  0  0  0  0  0  0
    6.1531    2.7772   -8.0478 O   0  0  0  0  0  0  0  0  0  0  0  0
    6.6394    4.9737   -7.8549 N   0  0  0  0  0  0  0  0  0  0  0  0
    7.3707    6.0270   -7.1719 C   0  0  1  0  0  0  0  0  0  0  0  0
    7.2748    5.8784   -5.6811 C   0  0  0  0  0  0  0  0  0  0  0  0
    7.5180    6.9016   -4.7874 C   0  0  0  0  0  0  0  0  0  0  0  0
    7.5701    6.7696   -3.4491 N   0  0  0  0  0  0  0  0  0  0  0  0
    7.6981    8.1759   -5.2227 O   0  0  0  0  0  0  0  0  0  0  0  0
    8.8339    6.0003   -7.6175 C   0  0  0  0  0  0  0  0  0  0  0  0
    7.4392    4.1352    0.4459 C   0  0  0  0  0  0  0  0  0  0  0  0
    8.7284    3.7147    0.6160 N   0  0  0  0  0  0  0  0  0  0  0  0
    9.1086    3.5450    1.8722 C   0  0  0  0  0  0  0  0  0  0  0  0
   10.3602    3.0236    2.0300 O   0  0  0  0  0  0  0  0  0  0  0  0
    8.3159    3.7923    2.9825 C   0  0  0  0  0  0  0  0  0  0  0  0
    6.9692    4.2436    2.8300 C   0  0  0  0  0  0  0  0  0  0  0  0
    6.4993    4.4129    1.4999 C   0  0  0  0  0  0  0  0  0  0  0  0
    5.1277    4.8072    1.3228 C   0  0  0  0  0  0  0  0  0  0  0  0
    4.6728    4.9838    0.0299 O   0  0  0  0  0  0  0  0  0  0  0  0
    4.2306    4.9962    2.3964 C   0  0  0  0  0  0  0  0  0  0  0  0
    4.6937    4.8650    3.6943 C   0  0  0  0  0  0  0  0  0  0  0  0
    6.0584    4.5223    3.9238 C   0  0  0  0  0  0  0  0  0  0  0  0
    6.5078    4.3012    5.2539 N   0  0  0  0  0  0  0  0  0  0  0  0
    3.8557    5.0879    4.7707 O   0  0  0  0  0  0  0  0  0  0  0  0
    2.5201    5.3966    4.5520 C   0  0  0  0  0  0  0  0  0  0  0  0
    1.9090    5.4410    3.3420 C   0  0  0  0  0  0  0  0  0  0  0  0
    2.8038    5.3420    2.1724 C   0  0  0  0  0  0  0  0  0  0  0  0
    2.4412    5.5931    1.0261 O   0  0  0  0  0  0  0  0  0  0  0  0
    0.4430    5.7657    3.3100 C   0  0  0  0  0  0  0  0  0  0  0  0
   -0.1513    5.9277    2.2107 O   0  0  0  0  0  0  0  0  0  0  0  0
   -0.2627    5.9266    4.4900 N   0  0  0  0  0  0  0  0  0  0  0  0
    0.4500    5.9222    5.5691 C   0  0  0  0  0  0  0  0  0  0  0  0
    1.7584    5.6856    5.6591 N   0  0  0  0  0  0  0  0  0  0  0  0
   -0.1000    6.1577    6.7670 O   0  0  0  0  0  0  0  0  0  0  0  0
    8.8677    3.5439    4.2209 O   0  0  0  0  0  0  0  0  0  0  0  0
  1  2  1  0  0  0  0
  2  3  2  0  0  0  0
  2  4  1  0  0  0  0
  5  4  1  6  0  0  0
  5  6  1  0  0  0  0
  5 10  1  0  0  0  0
  6  7  1  0  0  0  0
  6 39  1  1  0  0  0
  7  8  1  0  0  0  0
  8  9  1  0  0  0  0
  8 23  1  1  0  0  0
  9 10  1  0  0  0  0
  9 14  1  6  0  0  0
 10 11  1  6  0  0  0
 11 12  1  0  0  0  0
 12 13  2  0  0  0  0
 12 21  1  0  0  0  0
 13 14  1  0  0  0  0
 13 15  1  0  0  0  0
 15 16  2  0  0  0  0
 15 17  1  0  0  0  0
 17 18  2  0  0  0  0
 17 19  1  0  0  0  0
 19 20  2  0  0  0  0
 19 21  1  0  0  0  0
 21 22  2  0  0  0  0
 23 24  1  0  0  0  0
 24 25  2  0  0  0  0
 24 26  1  0  0  0  0
 24 38  1  0  0  0  0
 26 27  1  0  0  0  0
 27 28  1  0  0  0  0
 27 34  1  0  0  0  0
 28 30  1  0  0  0  0
 28 29  1  1  0  0  0
 30 32  1  0  0  0  0
 30 31  1  6  0  0  0
 32 33  1  0  0  0  0
 32 37  1  1  0  0  0
 33 34  1  0  0  0  0
 33 36  1  6  0  0  0
 34 35  1  1  0  0  0
 39 40  1  0  0  0  0
 40 41  2  0  0  0  0
 40 45  1  0  0  0  0
 41 42  1  0  0  0  0
 41 58  1  0  0  0  0
 42 43  1  0  0  0  0
 43 44  2  0  0  0  0
 43 55  1  0  0  0  0
 44 45  1  0  0  0  0
 44 47  1  0  0  0  0
 45 46  1  0  0  0  0
 47 48  1  0  0  0  0
 47 53  2  0  0  0  0
 48 49  1  0  0  0  0
 49 50  2  0  0  0  0
 49 51  1  0  0  0  0
 51 52  1  0  0  0  0
 52 53  1  0  0  0  0
 52 57  1  6  0  0  0
 53 54  1  0  0  0  0
 54 55  2  0  0  0  0
 54 56  1  0  0  0  0
 58 59  2  0  0  0  0
 58 64  1  0  0  0  0
 59 60  1  0  0  0  0
 60 61  1  0  0  0  0
 60 62  2  0  0  0  0
 62 63  1  0  0  0  0
 62 82  1  0  0  0  0
 63 64  2  0  0  0  0
 63 69  1  0  0  0  0
 64 65  1  0  0  0  0
 65 66  1  0  0  0  0
 65 67  2  0  0  0  0
 67 68  1  0  0  0  0
 67 74  1  0  0  0  0
 68 69  2  0  0  0  0
 68 71  1  0  0  0  0
 69 70  1  0  0  0  0
 71 72  1  0  0  0  0
 72 73  2  0  0  0  0
 72 80  1  0  0  0  0
 73 74  1  0  0  0  0
 73 76  1  0  0  0  0
 74 75  2  0  0  0  0
 76 77  2  0  0  0  0
 76 78  1  0  0  0  0
 78 79  2  0  0  0  0
 79 80  1  0  0  0  0
 79 81  1  0  0  0  0
M  END
$$$$