
 OpenBabel09222018573D

 52 60  0  0  1  0  0  0  0  0999 V2000
    1.2094   -7.8288   -5.1751 O   0  0  0  0  0  0  0  0  0  0  0  0
    0.7488   -7.6829   -3.8921 C   0  0  0  0  0  0  0  0  0  0  0  0
    1.0033   -6.5966   -3.1543 C   0  0  0  0  0  0  0  0  0  0  0  0
    1.8215   -5.5845   -3.6126 O   0  0  0  0  0  0  0  0  0  0  0  0
    1.3578   -4.2620   -3.3212 C   0  0  2  0  0  0  0  0  0  0  0  0
    2.1756   -3.2425   -3.9408 O   0  0  0  0  0  0  0  0  0  0  0  0
    2.2951   -3.2111   -5.3314 C   0  0  0  0  0  0  0  0  0  0  0  0
    2.6310   -2.0854   -6.0030 C   0  0  0  0  0  0  0  0  0  0  0  0
    2.8115   -2.0358   -7.3932 O   0  0  0  0  0  0  0  0  0  0  0  0
    2.8458   -3.2161   -8.1164 C   0  0  0  0  0  0  0  0  0  0  0  0
    2.5343   -4.4224   -7.5305 C   0  0  0  0  0  0  0  0  0  0  0  0
    2.1315   -4.4865   -6.1009 C   0  0  0  0  0  0  0  0  0  0  0  0
    2.5909   -5.5748   -8.3136 C   0  0  0  0  0  0  0  0  0  0  0  0
    2.2550   -6.8182   -7.7638 N   0  0  0  0  0  0  0  0  0  0  0  0
    2.4355   -8.0108   -8.3807 C   0  0  0  0  0  0  0  0  0  0  0  0
    2.1880   -9.0664   -7.8038 O   0  0  0  0  0  0  0  0  0  0  0  0
    2.9291   -7.9773   -9.6415 N   0  0  0  0  0  0  0  0  0  0  0  0
    3.0528   -6.7768  -10.4419 C   0  0  0  0  0  0  0  0  0  0  0  0
    2.9902   -5.5110   -9.6404 C   0  0  0  0  0  0  0  0  0  0  0  0
    3.2830   -4.2492  -10.1802 C   0  0  0  0  0  0  0  0  0  0  0  0
    3.1942   -3.1113   -9.4183 N   0  0  0  0  0  0  0  0  0  0  0  0
    3.7728   -4.0257  -11.6679 C   0  0  0  0  0  0  0  0  0  0  0  0
    2.8635   -4.4716  -12.6914 O   0  0  0  0  0  0  0  0  0  0  0  0
    2.7087   -3.1258  -13.1498 C   0  0  0  0  0  0  0  0  0  0  0  0
    3.6877   -2.6988  -12.2085 O   0  0  0  0  0  0  0  0  0  0  0  0
    2.8419   -0.7677   -5.3547 C   0  0  0  0  0  0  0  0  0  0  0  0
    4.1164   -0.5382   -4.9444 N   0  0  0  0  0  0  0  0  0  0  0  0
    4.4045    0.6890   -4.4623 C   0  0  0  0  0  0  0  0  0  0  0  0
    3.4970    1.7324   -4.4070 C   0  0  0  0  0  0  0  0  0  0  0  0
    2.1863    1.5068   -4.8331 C   0  0  0  0  0  0  0  0  0  0  0  0
    1.8201    0.2138   -5.2808 C   0  0  0  0  0  0  0  0  0  0  0  0
    0.4653   -0.0042   -5.6137 C   0  0  0  0  0  0  0  0  0  0  0  0
   -0.4715    1.0357   -5.5432 C   0  0  0  0  0  0  0  0  0  0  0  0
   -0.0816    2.3275   -5.2179 C   0  0  0  0  0  0  0  0  0  0  0  0
    1.2393    2.5525   -4.8308 C   0  0  0  0  0  0  0  0  0  0  0  0
   -0.9053    3.4181   -5.2310 O   0  0  0  0  0  0  0  0  0  0  0  0
   -2.1968    3.2586   -5.8387 C   0  0  2  0  0  0  0  0  0  0  0  0
   -2.8374    1.9182   -5.5999 C   0  0  0  0  0  0  0  0  0  0  0  0
   -4.0201    1.7421   -5.3452 O   0  0  0  0  0  0  0  0  0  0  0  0
   -1.8934    0.7532   -5.7608 C   0  0  0  0  0  0  0  0  0  0  0  0
   -2.3054   -0.3646   -6.0272 O   0  0  0  0  0  0  0  0  0  0  0  0
   -2.1548    3.5847   -7.3085 C   0  0  1  0  0  0  0  0  0  0  0  0
   -1.2689    2.7966   -8.1332 O   0  0  0  0  0  0  0  0  0  0  0  0
   -3.4187    3.8463   -7.9269 O   0  0  0  0  0  0  0  0  0  0  0  0
   -2.5796    4.8820   -7.7974 C   0  0  0  0  0  0  0  0  0  0  0  0
   -2.7445    5.9610   -7.2482 O   0  0  0  0  0  0  0  0  0  0  0  0
    1.3494   -4.0770   -1.7955 C   0  0  0  0  0  0  0  0  0  0  0  0
    1.5968   -3.0433   -1.1900 O   0  0  0  0  0  0  0  0  0  0  0  0
    0.9385   -5.3188   -1.0257 C   0  0  0  0  0  0  0  0  0  0  0  0
    1.0190   -5.3617    0.1925 O   0  0  0  0  0  0  0  0  0  0  0  0
    0.4548   -6.5321   -1.7802 C   0  0  0  0  0  0  0  0  0  0  0  0
   -0.3218   -7.3374   -1.2989 O   0  0  0  0  0  0  0  0  0  0  0  0
  1  2  1  0  0  0  0
  2  3  2  0  0  0  0
  3  4  1  0  0  0  0
  3 51  1  0  0  0  0
  4  5  1  0  0  0  0
  5  6  1  6  0  0  0
  5 47  1  0  0  0  0
  6  7  1  0  0  0  0
  7  8  2  0  0  0  0
  7 12  1  0  0  0  0
  8  9  1  0  0  0  0
  8 26  1  0  0  0  0
  9 10  1  0  0  0  0
 10 11  2  0  0  0  0
 10 21  1  0  0  0  0
 11 12  1  0  0  0  0
 11 13  1  0  0  0  0
 13 14  1  0  0  0  0
 13 19  2  0  0  0  0
 14 15  1  0  0  0  0
 15 16  2  0  0  0  0
 15 17  1  0  0  0  0
 17 18  1  0  0  0  0
 18 19  1  0  0  0  0
 19 20  1  0  0  0  0
 20 21  2  0  0  0  0
 20 22  1  0  0  0  0
 22 23  1  0  0  0  0
 22 25  1  0  0  0  0
 23 24  1  0  0  0  0
 24 25  1  0  0  0  0
 26 27  2  0  0  0  0
 26 31  1  0  0  0  0
 27 28  1  0  0  0  0
 28 29  2  0  0  0  0
 29 30  1  0  0  0  0
 30 31  2  0  0  0  0
 30 35  1  0  0  0  0
 31 32  1  0  0  0  0
 32 33  2  0  0  0  0
 33 34  1  0  0  0  0
 33 40  1  0  0  0  0
 34 35  2  0  0  0  0
 34 36  1  0  0  0  0
 37 36  1  6  0  0  0
 37 38  1  0  0  0  0
 37 42  1  0  0  0  0
 38 39  2  0  0  0  0
 38 40  1  0  0  0  0
 40 41  2  0  0  0  0
 42 43  1  6  0  0  0
 42 44  1  0  0  0  0
 42 45  1  0  0  0  0
 44 45  1  0  0  0  0
 45 46  2  0  0  0  0
 47 48  2  0  0  0  0
 47 49  1  0  0  0  0
 49 50  2  0  0  0  0
 49 51  1  0  0  0  0
 51 52  2  0  0  0  0
M  END
$$$$