
 OpenBabel11212016103D

 54 62  0  0  1  0  0  0  0  0999 V2000
    0.5955    4.8319   -0.0896 O   0  0  0  0  0  0  0  0  0  0  0  0
    1.6841    5.5509    0.3266 C   0  0  0  0  0  0  0  0  0  0  0  0
    2.3558    5.3359    1.4632 C   0  0  0  0  0  0  0  0  0  0  0  0
    1.9795    4.3382    2.3537 O   0  0  0  0  0  0  0  0  0  0  0  0
    3.0786    3.5177    2.7576 C   0  0  2  0  0  0  0  0  0  0  0  0
    2.6051    2.4876    3.6615 O   0  0  0  0  0  0  0  0  0  0  0  0
    2.5569    2.7263    5.0329 C   0  0  0  0  0  0  0  0  0  0  0  0
    2.7289    1.7173    5.9217 C   0  0  0  0  0  0  0  0  0  0  0  0
    2.7935    1.9620    7.3029 O   0  0  0  0  0  0  0  0  0  0  0  0
    2.7842    3.2657    7.7993 C   0  0  0  0  0  0  0  0  0  0  0  0
    2.4856    4.3008    6.9985 C   0  0  0  0  0  0  0  0  0  0  0  0
    2.2597    4.1268    5.5284 C   0  0  0  0  0  0  0  0  0  0  0  0
    2.4023    5.7121    7.5130 C   0  0  3  0  0  0  0  0  0  0  0  0
    1.0492    6.1080    7.3859 O   0  0  0  0  0  0  0  0  0  0  0  0
    0.6770    7.3090    7.9052 C   0  0  0  0  0  0  0  0  0  0  0  0
   -0.4127    7.7939    7.6489 O   0  0  0  0  0  0  0  0  0  0  0  0
    1.5654    7.9069    8.7349 O   0  0  0  0  0  0  0  0  0  0  0  0
    2.6409    7.2241    9.3718 C   0  0  3  0  0  0  0  0  0  0  0  0
    2.7314    5.8002    8.9539 C   0  0  0  0  0  0  0  0  0  0  0  0
    3.0532    4.7221    9.7036 C   0  0  0  0  0  0  0  0  0  0  0  0
    3.0643    3.4526    9.1363 O   0  3  0  0  0  0  0  0  0  0  0  0
    3.4525    4.7744   11.1310 C   0  0  0  0  0  0  0  0  0  0  0  0
    3.7687    3.5578   11.8343 O   0  0  0  0  0  0  0  0  0  0  0  0
    4.8068    4.5028   11.5155 O   0  0  0  0  0  0  0  0  0  0  0  0
    3.8630    7.8112    8.9809 O   0  0  0  0  0  0  0  0  0  0  0  0
    2.7527    0.2600    5.5369 C   0  0  0  0  0  0  0  0  0  0  0  0
    2.0054   -0.0406    4.4609 N   0  0  0  0  0  0  0  0  0  0  0  0
    1.8503   -1.3019    4.1139 N   0  3  0  0  0  0  0  0  0  0  0  0
    1.0807   -1.5807    3.0429 F   0  0  0  0  0  0  0  0  0  0  0  0
    2.3696   -2.3056    4.7842 N   0  0  0  0  0  0  0  0  0  0  0  0
    3.1010   -2.0592    5.8673 C   0  0  0  0  0  0  0  0  0  0  0  0
    3.3509   -0.7557    6.2991 C   0  0  0  0  0  0  0  0  0  0  0  0
    4.1316   -0.5796    7.4665 C   0  0  0  0  0  0  0  0  0  0  0  0
    4.5467   -1.6691    8.2428 C   0  0  0  0  0  0  0  0  0  0  0  0
    5.0830   -1.4187    9.5806 C   0  0  0  0  0  0  0  0  0  0  0  0
    5.1005   -0.2740   10.0144 O   0  0  0  0  0  0  0  0  0  0  0  0
    5.4252   -2.6327   10.4141 C   0  0  0  0  0  0  0  0  0  0  0  0
    5.5422   -2.5290   11.6248 O   0  0  0  0  0  0  0  0  0  0  0  0
    5.5918   -3.9142    9.6197 C   0  0  1  0  0  0  0  0  0  0  0  0
    4.6995   -4.0740    8.5023 O   0  0  0  0  0  0  0  0  0  0  0  0
    4.3200   -2.9588    7.8156 C   0  0  0  0  0  0  0  0  0  0  0  0
    3.6085   -3.1285    6.6216 C   0  0  0  0  0  0  0  0  0  0  0  0
    3.3524   -4.3768    6.1987 F   0  0  0  0  0  0  0  0  0  0  0  0
    7.0097   -4.0639    9.1775 C   0  0  1  0  0  0  0  0  0  0  0  0
    7.5182   -3.0195    8.3062 O   0  0  0  0  0  0  0  0  0  0  0  0
    7.9010   -4.5110   10.1945 O   0  0  0  0  0  0  0  0  0  0  0  0
    7.7401   -5.3381    9.1399 C   0  0  0  0  0  0  0  0  0  0  0  0
    8.5477   -5.7211    8.3298 O   0  0  0  0  0  0  0  0  0  0  0  0
    4.3193    4.2631    3.2747 C   0  0  0  0  0  0  0  0  0  0  0  0
    5.1873    3.7703    3.9823 O   0  0  0  0  0  0  0  0  0  0  0  0
    4.2550    5.7430    3.0056 C   0  0  0  0  0  0  0  0  0  0  0  0
    4.5911    6.5248    3.8804 O   0  0  0  0  0  0  0  0  0  0  0  0
    3.5359    6.1967    1.7624 C   0  0  0  0  0  0  0  0  0  0  0  0
    3.9355    7.1276    1.0933 O   0  0  0  0  0  0  0  0  0  0  0  0
  1  2  1  0  0  0  0
  2  3  2  0  0  0  0
  3  4  1  0  0  0  0
  3 53  1  0  0  0  0
  4  5  1  0  0  0  0
  5  6  1  1  0  0  0
  5 49  1  0  0  0  0
  6  7  1  0  0  0  0
  7  8  2  0  0  0  0
  7 12  1  0  0  0  0
  8  9  1  0  0  0  0
  8 26  1  0  0  0  0
  9 10  1  0  0  0  0
 10 11  2  0  0  0  0
 10 21  1  0  0  0  0
 11 12  1  0  0  0  0
 11 13  1  0  0  0  0
 13 14  1  0  0  0  0
 13 19  1  0  0  0  0
 14 15  1  0  0  0  0
 15 16  2  0  0  0  0
 15 17  1  0  0  0  0
 17 18  1  0  0  0  0
 18 19  1  0  0  0  0
 18 25  1  0  0  0  0
 19 20  2  0  0  0  0
 20 21  1  0  0  0  0
 20 22  1  0  0  0  0
 22 23  1  0  0  0  0
 22 24  1  0  0  0  0
 23 24  1  0  0  0  0
 26 27  2  0  0  0  0
 26 32  1  0  0  0  0
 27 28  1  0  0  0  0
 28 29  1  0  0  0  0
 28 30  2  0  0  0  0
 30 31  1  0  0  0  0
 31 32  2  0  0  0  0
 31 42  1  0  0  0  0
 32 33  1  0  0  0  0
 33 34  2  0  0  0  0
 34 35  1  0  0  0  0
 34 41  1  0  0  0  0
 35 36  2  0  0  0  0
 35 37  1  0  0  0  0
 37 38  2  0  0  0  0
 39 37  1  6  0  0  0
 39 40  1  0  0  0  0
 39 44  1  0  0  0  0
 40 41  1  0  0  0  0
 41 42  2  0  0  0  0
 42 43  1  0  0  0  0
 44 45  1  6  0  0  0
 44 46  1  0  0  0  0
 44 47  1  0  0  0  0
 46 47  1  0  0  0  0
 47 48  2  0  0  0  0
 49 50  2  0  0  0  0
 49 51  1  0  0  0  0
 51 52  2  0  0  0  0
 51 53  1  0  0  0  0
 53 54  2  0  0  0  0
M  CHG  2  21   1  28   1
M  END
$$$$