
 OpenBabel11172006213D

 52 60  0  0  1  0  0  0  0  0999 V2000
    5.6247    4.7002   -7.0511 O   0  0  0  0  0  0  0  0  0  0  0  0
    5.4385    3.3475   -6.9581 C   0  0  0  0  0  0  0  0  0  0  0  0
    4.7958    2.7588   -5.9418 C   0  0  0  0  0  0  0  0  0  0  0  0
    4.3118    3.4587   -4.8506 O   0  0  0  0  0  0  0  0  0  0  0  0
    2.9980    3.0663   -4.4320 C   0  0  2  0  0  0  0  0  0  0  0  0
    2.5652    3.8107   -3.2717 O   0  0  0  0  0  0  0  0  0  0  0  0
    2.4009    5.1926   -3.3821 C   0  0  0  0  0  0  0  0  0  0  0  0
    2.0018    5.9423   -2.3260 C   0  0  0  0  0  0  0  0  0  0  0  0
    1.8383    7.3298   -2.3845 O   0  0  0  0  0  0  0  0  0  0  0  0
    2.1201    8.0021   -3.5685 C   0  0  0  0  0  0  0  0  0  0  0  0
    2.5060    7.3412   -4.6654 C   0  0  0  0  0  0  0  0  0  0  0  0
    2.6759    5.8659   -4.7063 C   0  0  0  0  0  0  0  0  0  0  0  0
    2.7831    8.1169   -5.9030 C   0  0  0  0  0  0  0  0  0  0  0  0
    3.0466    7.4811   -7.0004 N   0  0  0  0  0  0  0  0  0  0  0  0
    3.2590    8.2410   -8.1038 C   0  0  0  0  0  0  0  0  0  0  0  0
    3.3965    7.5689   -9.1878 N   0  0  0  0  0  0  0  0  0  0  0  0
    3.3407    9.5948   -8.1817 N   0  0  0  0  0  0  0  0  0  0  0  0
    3.0933   10.2888   -7.1082 C   0  0  0  0  0  0  0  0  0  0  0  0
    2.7257    9.6064   -5.8315 C   0  0  0  0  0  0  0  0  0  0  0  0
    2.3099   10.1698   -4.6737 C   0  0  0  0  0  0  0  0  0  0  0  0
    1.9882    9.3660   -3.5819 N   0  0  0  0  0  0  0  0  0  0  0  0
    2.1261   11.6215   -4.4405 C   0  0  0  0  0  0  0  0  0  0  0  0
    2.3103   12.1925   -3.1299 O   0  0  0  0  0  0  0  0  0  0  0  0
    3.2305   12.5050   -4.1926 O   0  0  0  0  0  0  0  0  0  0  0  0
    3.2061   11.6466   -7.2664 N   0  0  0  0  0  0  0  0  0  0  0  0
    1.6809    5.3788   -1.0008 C   0  0  0  0  0  0  0  0  0  0  0  0
    0.3688    5.0139   -0.7354 C   0  0  0  0  0  0  0  0  0  0  0  0
   -0.0215    4.4972    0.4439 N   0  0  0  0  0  0  0  0  0  0  0  0
    0.9055    4.2970    1.4246 N   0  0  0  0  0  0  0  0  0  0  0  0
    2.1923    4.6190    1.2359 C   0  0  0  0  0  0  0  0  0  0  0  0
    2.6365    5.1941    0.0262 C   0  0  0  0  0  0  0  0  0  0  0  0
    4.0029    5.5434   -0.0882 C   0  0  0  0  0  0  0  0  0  0  0  0
    4.8990    5.2729    0.9528 C   0  0  0  0  0  0  0  0  0  0  0  0
    4.4636    4.6741    2.1243 C   0  0  0  0  0  0  0  0  0  0  0  0
    3.1082    4.3697    2.2556 C   0  0  0  0  0  0  0  0  0  0  0  0
    5.2582    4.3361    3.1817 O   0  0  0  0  0  0  0  0  0  0  0  0
    6.6762    4.5242    3.0652 C   0  0  2  0  0  0  0  0  0  0  0  0
    7.1201    5.5822    2.0816 C   0  0  0  0  0  0  0  0  0  0  0  0
    8.0628    6.3415    2.2402 O   0  0  0  0  0  0  0  0  0  0  0  0
    6.3180    5.5978    0.8096 C   0  0  0  0  0  0  0  0  0  0  0  0
    6.8351    5.8433   -0.2669 O   0  0  0  0  0  0  0  0  0  0  0  0
    7.3638    3.2162    2.7820 C   0  0  1  0  0  0  0  0  0  0  0  0
    6.9558    2.5425    1.5551 O   0  0  0  0  0  0  0  0  0  0  0  0
    8.7681    3.1809    2.9957 O   0  0  0  0  0  0  0  0  0  0  0  0
    7.9807    2.4530    3.8210 C   0  0  0  0  0  0  0  0  0  0  0  0
    7.8895    2.4904    5.0248 O   0  0  0  0  0  0  0  0  0  0  0  0
    2.9037    1.5693   -4.1194 C   0  0  0  0  0  0  0  0  0  0  0  0
    1.9593    1.0044   -3.5858 O   0  0  0  0  0  0  0  0  0  0  0  0
    4.0525    0.7724   -4.6881 C   0  0  0  0  0  0  0  0  0  0  0  0
    4.5082   -0.2010   -4.1138 O   0  0  0  0  0  0  0  0  0  0  0  0
    4.6742    1.2820   -5.9627 C   0  0  0  0  0  0  0  0  0  0  0  0
    4.9732    0.5546   -6.8907 O   0  0  0  0  0  0  0  0  0  0  0  0
  1  2  1  0  0  0  0
  2  3  2  0  0  0  0
  3  4  1  0  0  0  0
  3 51  1  0  0  0  0
  4  5  1  0  0  0  0
  5  6  1  1  0  0  0
  5 47  1  0  0  0  0
  6  7  1  0  0  0  0
  7  8  2  0  0  0  0
  7 12  1  0  0  0  0
  8  9  1  0  0  0  0
  8 26  1  0  0  0  0
  9 10  1  0  0  0  0
 10 11  2  0  0  0  0
 10 21  1  0  0  0  0
 11 12  1  0  0  0  0
 11 13  1  0  0  0  0
 13 14  2  0  0  0  0
 13 19  1  0  0  0  0
 14 15  1  0  0  0  0
 15 16  2  0  0  0  0
 15 17  1  0  0  0  0
 17 18  2  0  0  0  0
 18 19  1  0  0  0  0
 18 25  1  0  0  0  0
 19 20  2  0  0  0  0
 20 21  1  0  0  0  0
 20 22  1  0  0  0  0
 22 23  1  0  0  0  0
 22 24  1  0  0  0  0
 23 24  1  0  0  0  0
 26 27  2  0  0  0  0
 26 31  1  0  0  0  0
 27 28  1  0  0  0  0
 28 29  2  0  0  0  0
 29 30  1  0  0  0  0
 30 31  2  0  0  0  0
 30 35  1  0  0  0  0
 31 32  1  0  0  0  0
 32 33  2  0  0  0  0
 33 34  1  0  0  0  0
 33 40  1  0  0  0  0
 34 35  2  0  0  0  0
 34 36  1  0  0  0  0
 37 36  1  6  0  0  0
 37 38  1  0  0  0  0
 37 42  1  0  0  0  0
 38 39  2  0  0  0  0
 38 40  1  0  0  0  0
 40 41  2  0  0  0  0
 42 43  1  6  0  0  0
 42 44  1  0  0  0  0
 42 45  1  0  0  0  0
 44 45  1  0  0  0  0
 45 46  2  0  0  0  0
 47 48  2  0  0  0  0
 47 49  1  0  0  0  0
 49 50  2  0  0  0  0
 49 51  1  0  0  0  0
 51 52  2  0  0  0  0
M  END
$$$$