
 OpenBabel09262021383D

 52 60  0  0  1  0  0  0  0  0999 V2000
   -0.9026   -7.4887    7.9727 O   0  0  0  0  0  0  0  0  0  0  0  0
   -1.6305   -6.3569    7.7209 C   0  0  0  0  0  0  0  0  0  0  0  0
   -1.1188   -5.2491    7.1646 C   0  0  0  0  0  0  0  0  0  0  0  0
    0.2209   -5.1429    6.8163 O   0  0  0  0  0  0  0  0  0  0  0  0
    0.4564   -4.4011    5.6138 C   0  0  2  0  0  0  0  0  0  0  0  0
    1.8582   -4.3917    5.2545 O   0  0  0  0  0  0  0  0  0  0  0  0
    2.3671   -5.4592    4.5162 C   0  0  0  0  0  0  0  0  0  0  0  0
    3.6796   -5.5558    4.1769 C   0  0  0  0  0  0  0  0  0  0  0  0
    4.2121   -6.6919    3.5480 O   0  0  0  0  0  0  0  0  0  0  0  0
    3.4449   -7.8500    3.4927 C   0  0  0  0  0  0  0  0  0  0  0  0
    2.1266   -7.8112    3.7199 C   0  0  0  0  0  0  0  0  0  0  0  0
    1.4230   -6.5562    4.0760 C   0  0  0  0  0  0  0  0  0  0  0  0
    1.3694   -9.0890    3.7426 C   0  0  0  0  0  0  0  0  0  0  0  0
    0.0876   -9.0858    3.9123 N   0  0  0  0  0  0  0  0  0  0  0  0
   -0.5854  -10.2871    3.9845 C   0  0  0  0  0  0  0  0  0  0  0  0
   -1.8051  -10.2592    4.0869 O   0  0  0  0  0  0  0  0  0  0  0  0
    0.0484  -11.5128    3.9654 N   0  0  0  0  0  0  0  0  0  0  0  0
    1.3238  -11.5438    3.7870 C   0  0  0  0  0  0  0  0  0  0  0  0
    2.1452  -10.3433    3.6111 C   0  0  0  0  0  0  0  0  0  0  0  0
    3.4741  -10.2864    3.3740 C   0  0  0  0  0  0  0  0  0  0  0  0
    4.0861   -9.0389    3.2521 N   0  0  0  0  0  0  0  0  0  0  0  0
    4.3828  -11.4579    3.2438 C   0  0  0  0  0  0  0  0  0  0  0  0
    5.5781  -11.3994    2.4448 O   0  0  0  0  0  0  0  0  0  0  0  0
    5.6730  -11.4764    3.8801 O   0  0  0  0  0  0  0  0  0  0  0  0
    4.7163   -4.5290    4.4438 C   0  0  0  0  0  0  0  0  0  0  0  0
    4.9390   -3.6740    3.4244 N   0  0  0  0  0  0  0  0  0  0  0  0
    5.8891   -2.7566    3.6257 C   0  0  0  0  0  0  0  0  0  0  0  0
    6.6290   -2.6184    4.7337 N   0  0  0  0  0  0  0  0  0  0  0  0
    6.4100   -3.4683    5.7525 C   0  0  0  0  0  0  0  0  0  0  0  0
    5.4528   -4.4927    5.6383 C   0  0  0  0  0  0  0  0  0  0  0  0
    5.2711   -5.4075    6.6937 C   0  0  0  0  0  0  0  0  0  0  0  0
    5.9590   -5.2515    7.8939 C   0  0  0  0  0  0  0  0  0  0  0  0
    5.6744   -6.1681    9.0040 C   0  0  0  0  0  0  0  0  0  0  0  0
    4.9186   -7.1182    8.8788 O   0  0  0  0  0  0  0  0  0  0  0  0
    6.3449   -5.8626   10.3199 C   0  0  0  0  0  0  0  0  0  0  0  0
    6.3978   -6.6956   11.2127 O   0  0  0  0  0  0  0  0  0  0  0  0
    6.8565   -4.4478   10.4302 C   0  0  1  0  0  0  0  0  0  0  0  0
    7.5117   -3.9772    9.2446 O   0  0  0  0  0  0  0  0  0  0  0  0
    6.8617   -4.2099    8.0592 C   0  0  0  0  0  0  0  0  0  0  0  0
    7.1106   -3.3546    6.9714 C   0  0  0  0  0  0  0  0  0  0  0  0
    8.3972   -1.9492    7.1856 Br  0  0  0  0  0  0  0  0  0  0  0  0
    5.7587   -3.5187   10.8453 C   0  0  1  0  0  0  0  0  0  0  0  0
    4.6154   -3.4272    9.9590 O   0  0  0  0  0  0  0  0  0  0  0  0
    5.4508   -3.5683   12.2387 O   0  0  0  0  0  0  0  0  0  0  0  0
    5.9298   -2.3943   11.7696 C   0  0  0  0  0  0  0  0  0  0  0  0
    5.4122   -1.3067   11.7736 O   0  0  0  0  0  0  0  0  0  0  0  0
   -0.0443   -2.9726    5.7544 C   0  0  0  0  0  0  0  0  0  0  0  0
    0.5385   -1.9629    5.3877 O   0  0  0  0  0  0  0  0  0  0  0  0
   -1.4449   -2.8983    6.3123 C   0  0  0  0  0  0  0  0  0  0  0  0
   -2.0929   -1.8675    6.2094 O   0  0  0  0  0  0  0  0  0  0  0  0
   -2.0646   -4.1177    6.9548 C   0  0  0  0  0  0  0  0  0  0  0  0
   -3.2512   -4.1536    7.2396 O   0  0  0  0  0  0  0  0  0  0  0  0
  1  2  1  0  0  0  0
  2  3  2  0  0  0  0
  3  4  1  0  0  0  0
  3 51  1  0  0  0  0
  4  5  1  0  0  0  0
  5  6  1  1  0  0  0
  5 47  1  0  0  0  0
  6  7  1  0  0  0  0
  7  8  2  0  0  0  0
  7 12  1  0  0  0  0
  8  9  1  0  0  0  0
  8 25  1  0  0  0  0
  9 10  1  0  0  0  0
 10 11  2  0  0  0  0
 10 21  1  0  0  0  0
 11 12  1  0  0  0  0
 11 13  1  0  0  0  0
 13 14  2  0  0  0  0
 13 19  1  0  0  0  0
 14 15  1  0  0  0  0
 15 16  2  0  0  0  0
 15 17  1  0  0  0  0
 17 18  2  0  0  0  0
 18 19  1  0  0  0  0
 19 20  2  0  0  0  0
 20 21  1  0  0  0  0
 20 22  1  0  0  0  0
 22 23  1  0  0  0  0
 22 24  1  0  0  0  0
 23 24  1  0  0  0  0
 25 26  2  0  0  0  0
 25 30  1  0  0  0  0
 26 27  1  0  0  0  0
 27 28  2  0  0  0  0
 28 29  1  0  0  0  0
 29 30  2  0  0  0  0
 29 40  1  0  0  0  0
 30 31  1  0  0  0  0
 31 32  2  0  0  0  0
 32 33  1  0  0  0  0
 32 39  1  0  0  0  0
 33 34  2  0  0  0  0
 33 35  1  0  0  0  0
 35 36  2  0  0  0  0
 37 35  1  6  0  0  0
 37 38  1  0  0  0  0
 37 42  1  0  0  0  0
 38 39  1  0  0  0  0
 39 40  2  0  0  0  0
 40 41  1  0  0  0  0
 42 43  1  6  0  0  0
 42 44  1  0  0  0  0
 42 45  1  0  0  0  0
 44 45  1  0  0  0  0
 45 46  2  0  0  0  0
 47 48  2  0  0  0  0
 47 49  1  0  0  0  0
 49 50  2  0  0  0  0
 49 51  1  0  0  0  0
 51 52  2  0  0  0  0
M  END
$$$$