
 OpenBabel11152011563D

 52 60  0  0  1  0  0  0  0  0999 V2000
    1.1380    7.0651    3.2496 O   0  0  0  0  0  0  0  0  0  0  0  0
    2.3298    7.1735    3.9182 C   0  0  0  0  0  0  0  0  0  0  0  0
    3.4248    6.4905    3.5621 C   0  0  0  0  0  0  0  0  0  0  0  0
    3.3930    5.5862    2.5178 O   0  0  0  0  0  0  0  0  0  0  0  0
    4.5641    5.6016    1.7017 C   0  0  2  0  0  0  0  0  0  0  0  0
    4.4109    4.7587    0.5502 O   0  0  0  0  0  0  0  0  0  0  0  0
    3.3804    5.0848   -0.3269 C   0  0  0  0  0  0  0  0  0  0  0  0
    2.7465    4.1213   -1.0352 C   0  0  0  0  0  0  0  0  0  0  0  0
    1.6860    4.4201   -1.8989 O   0  0  0  0  0  0  0  0  0  0  0  0
    1.1977    5.7135   -1.9706 C   0  0  0  0  0  0  0  0  0  0  0  0
    1.7831    6.7359   -1.3285 C   0  0  0  0  0  0  0  0  0  0  0  0
    2.9877    6.5363   -0.4760 C   0  0  0  0  0  0  0  0  0  0  0  0
    1.1847    8.1185   -1.3695 C   0  0  3  0  0  0  0  0  0  0  0  0
    2.1724    9.0062   -1.8874 O   0  0  0  0  0  0  0  0  0  0  0  0
    1.8427   10.2496   -2.3162 C   0  0  0  0  0  0  0  0  0  0  0  0
    2.7069   11.0800   -2.5665 O   0  0  0  0  0  0  0  0  0  0  0  0
    0.5292   10.5264   -2.5037 O   0  0  0  0  0  0  0  0  0  0  0  0
   -0.5230    9.6162   -2.2101 C   0  0  3  0  0  0  0  0  0  0  0  0
   -0.0430    8.2215   -2.2002 C   0  0  0  0  0  0  0  0  0  0  0  0
   -0.5804    7.1486   -2.8231 C   0  0  0  0  0  0  0  0  0  0  0  0
    0.0630    5.9235   -2.7149 N   0  0  0  0  0  0  0  0  0  0  0  0
   -1.8225    7.1696   -3.6257 C   0  0  0  0  0  0  0  0  0  0  0  0
   -2.9509    6.3456   -3.2882 O   0  0  0  0  0  0  0  0  0  0  0  0
   -3.0359    7.7759   -3.1489 O   0  0  0  0  0  0  0  0  0  0  0  0
   -1.0488    9.9239   -0.9304 O   0  0  0  0  0  0  0  0  0  0  0  0
    3.0665    2.6338   -0.9095 C   0  0  3  0  0  0  0  0  0  0  0  0
    2.2034    2.0598    0.1337 N   0  0  0  0  0  0  0  0  0  0  0  0
    1.0817    1.5772   -0.1324 N   0  0  0  0  0  0  0  0  0  0  0  0
    0.6619    1.3804   -1.4515 N   0  0  0  0  0  0  0  0  0  0  0  0
    1.5450    1.4161   -2.3945 C   0  0  0  0  0  0  0  0  0  0  0  0
    2.9349    1.8393   -2.1645 C   0  0  0  0  0  0  0  0  0  0  0  0
    3.8719    1.3864   -3.0128 C   0  0  0  0  0  0  0  0  0  0  0  0
    3.5450    0.5110   -4.1311 C   0  0  0  0  0  0  0  0  0  0  0  0
    2.2707    0.3422   -4.5332 C   0  0  0  0  0  0  0  0  0  0  0  0
    1.1377    1.0312   -3.8094 C   0  0  0  0  0  0  0  0  0  0  0  0
    1.8530   -0.4357   -5.5918 O   0  0  0  0  0  0  0  0  0  0  0  0
    2.8352   -0.9931   -6.4738 C   0  0  2  0  0  0  0  0  0  0  0  0
    4.1503   -1.2932   -5.8067 C   0  0  0  0  0  0  0  0  0  0  0  0
    4.8221   -2.2946   -6.0164 O   0  0  0  0  0  0  0  0  0  0  0  0
    4.6139   -0.2381   -4.8329 C   0  0  0  0  0  0  0  0  0  0  0  0
    5.8041   -0.0567   -4.6261 O   0  0  0  0  0  0  0  0  0  0  0  0
    3.0163   -0.1845   -7.7283 C   0  0  1  0  0  0  0  0  0  0  0  0
    3.9871   -0.6689   -8.6763 O   0  0  0  0  0  0  0  0  0  0  0  0
    1.7960    0.2827   -8.3465 O   0  0  0  0  0  0  0  0  0  0  0  0
    2.6203    1.1967   -7.8286 C   0  0  0  0  0  0  0  0  0  0  0  0
    2.4629    2.0983   -7.0385 O   0  0  0  0  0  0  0  0  0  0  0  0
    5.7537    5.1536    2.5335 C   0  0  0  0  0  0  0  0  0  0  0  0
    6.5876    4.3172    2.2210 O   0  0  0  0  0  0  0  0  0  0  0  0
    5.8700    5.9286    3.8256 C   0  0  0  0  0  0  0  0  0  0  0  0
    6.9333    5.9674    4.4260 O   0  0  0  0  0  0  0  0  0  0  0  0
    4.6761    6.7117    4.3371 C   0  0  0  0  0  0  0  0  0  0  0  0
    4.7694    7.4876    5.2743 O   0  0  0  0  0  0  0  0  0  0  0  0
  1  2  1  0  0  0  0
  2  3  2  0  0  0  0
  3  4  1  0  0  0  0
  3 51  1  0  0  0  0
  4  5  1  0  0  0  0
  5  6  1  6  0  0  0
  5 47  1  0  0  0  0
  6  7  1  0  0  0  0
  7  8  2  0  0  0  0
  7 12  1  0  0  0  0
  8  9  1  0  0  0  0
  8 26  1  0  0  0  0
  9 10  1  0  0  0  0
 10 11  2  0  0  0  0
 10 21  1  0  0  0  0
 11 12  1  0  0  0  0
 11 13  1  0  0  0  0
 13 14  1  0  0  0  0
 13 19  1  0  0  0  0
 14 15  1  0  0  0  0
 15 16  2  0  0  0  0
 15 17  1  0  0  0  0
 17 18  1  0  0  0  0
 18 19  1  0  0  0  0
 18 25  1  0  0  0  0
 19 20  2  0  0  0  0
 20 21  1  0  0  0  0
 20 22  1  0  0  0  0
 22 23  1  0  0  0  0
 22 24  1  0  0  0  0
 23 24  1  0  0  0  0
 26 27  1  0  0  0  0
 26 31  1  0  0  0  0
 27 28  2  0  0  0  0
 28 29  1  0  0  0  0
 29 30  2  0  0  0  0
 30 31  1  0  0  0  0
 30 35  1  0  0  0  0
 31 32  2  0  0  0  0
 32 33  1  0  0  0  0
 33 34  2  0  0  0  0
 33 40  1  0  0  0  0
 34 35  1  0  0  0  0
 34 36  1  0  0  0  0
 37 36  1  1  0  0  0
 37 38  1  0  0  0  0
 37 42  1  0  0  0  0
 38 39  2  0  0  0  0
 38 40  1  0  0  0  0
 40 41  2  0  0  0  0
 42 43  1  6  0  0  0
 42 44  1  0  0  0  0
 42 45  1  0  0  0  0
 44 45  1  0  0  0  0
 45 46  2  0  0  0  0
 47 48  2  0  0  0  0
 47 49  1  0  0  0  0
 49 50  2  0  0  0  0
 49 51  1  0  0  0  0
 51 52  2  0  0  0  0
M  END
$$$$