
 OpenBabel11262014013D

 54 62  0  0  1  0  0  0  0  0999 V2000
    6.9809   -2.7046    3.8865 F   0  0  0  0  0  0  0  0  0  0  0  0
    6.7393   -1.3890    3.7224 C   0  0  0  0  0  0  0  0  0  0  0  0
    5.5004   -0.9364    3.5184 C   0  0  0  0  0  0  0  0  0  0  0  0
    4.4445   -1.8255    3.4301 O   0  0  0  0  0  0  0  0  0  0  0  0
    3.2291   -1.3442    3.9888 C   0  0  2  0  0  0  0  0  0  0  0  0
    2.1800   -2.3262    3.7933 O   0  0  0  0  0  0  0  0  0  0  0  0
    2.3943   -3.5725    4.3683 C   0  0  0  0  0  0  0  0  0  0  0  0
    1.8708   -4.7012    3.8373 C   0  0  0  0  0  0  0  0  0  0  0  0
    2.0539   -5.9615    4.4445 O   0  0  0  0  0  0  0  0  0  0  0  0
    2.7287   -6.0670    5.6686 C   0  0  0  0  0  0  0  0  0  0  0  0
    3.2050   -4.9736    6.2894 C   0  0  0  0  0  0  0  0  0  0  0  0
    3.1167   -3.6080    5.6918 C   0  0  0  0  0  0  0  0  0  0  0  0
    3.8921   -5.0398    7.6251 C   0  0  3  0  0  0  0  0  0  0  0  0
    3.0554   -4.3979    8.5687 O   0  0  0  0  0  0  0  0  0  0  0  0
    3.4422   -4.4137    9.8752 C   0  0  0  0  0  0  0  0  0  0  0  0
    2.9395   -3.6574   10.6898 O   0  0  0  0  0  0  0  0  0  0  0  0
    4.3932   -5.3196   10.2100 O   0  0  0  0  0  0  0  0  0  0  0  0
    4.7838   -6.4126    9.3858 C   0  0  3  0  0  0  0  0  0  0  0  0
    4.0573   -6.4298    8.0912 C   0  0  0  0  0  0  0  0  0  0  0  0
    3.5887   -7.4982    7.4115 C   0  0  0  0  0  0  0  0  0  0  0  0
    2.8850   -7.3220    6.2252 O   0  3  0  0  0  0  0  0  0  0  0  0
    3.7630   -8.8955    7.8691 C   0  0  0  0  0  0  0  0  0  0  0  0
    2.7874   -9.5230    8.7084 O   0  0  0  0  0  0  0  0  0  0  0  0
    2.9353   -9.9436    7.3378 O   0  0  0  0  0  0  0  0  0  0  0  0
    6.1444   -6.2641    9.0313 O   0  0  0  0  0  0  0  0  0  0  0  0
    0.8845   -4.7040    2.7031 C   0  0  0  0  0  0  0  0  0  0  0  0
   -0.3456   -5.3218    2.9834 C   0  0  0  0  0  0  0  0  0  0  0  0
   -1.3706   -5.2808    2.0668 C   0  0  0  0  0  0  0  0  0  0  0  0
   -2.5284   -5.8838    2.3473 F   0  0  0  0  0  0  0  0  0  0  0  0
   -1.2143   -4.6057    0.8816 C   0  0  0  0  0  0  0  0  0  0  0  0
    0.0083   -3.9997    0.5850 C   0  0  0  0  0  0  0  0  0  0  0  0
    1.0755   -4.0948    1.4766 N   0  3  0  0  0  0  0  0  0  0  0  0
    2.2836   -3.6049    1.0704 C   0  0  0  0  0  0  0  0  0  0  0  0
    2.4451   -2.9378   -0.1499 C   0  0  0  0  0  0  0  0  0  0  0  0
    3.7679   -2.4821   -0.5407 C   0  0  0  0  0  0  0  0  0  0  0  0
    4.7245   -2.8046    0.1464 O   0  0  0  0  0  0  0  0  0  0  0  0
    3.8954   -1.6016   -1.7618 C   0  0  0  0  0  0  0  0  0  0  0  0
    4.9653   -1.0632   -2.0094 O   0  0  0  0  0  0  0  0  0  0  0  0
    2.6164   -1.3432   -2.5276 C   0  0  1  0  0  0  0  0  0  0  0  0
    1.4808   -2.1697   -2.2244 O   0  0  0  0  0  0  0  0  0  0  0  0
    1.3915   -2.7606   -1.0074 C   0  0  0  0  0  0  0  0  0  0  0  0
    0.1765   -3.3158   -0.6363 C   0  0  0  0  0  0  0  0  0  0  0  0
   -0.8635   -3.2248   -1.4793 F   0  0  0  0  0  0  0  0  0  0  0  0
    2.2138    0.1103   -2.4666 C   0  0  1  0  0  0  0  0  0  0  0  0
    0.9508    0.4278   -3.1148 O   0  0  0  0  0  0  0  0  0  0  0  0
    2.4604    0.7420   -1.2324 O   0  0  0  0  0  0  0  0  0  0  0  0
    3.1134    1.2360   -2.2879 C   0  0  0  0  0  0  0  0  0  0  0  0
    3.0413    2.3478   -2.7735 O   0  0  0  0  0  0  0  0  0  0  0  0
    2.8538   -0.0472    3.2882 C   0  0  0  0  0  0  0  0  0  0  0  0
    1.7901    0.0732    2.6788 O   0  0  0  0  0  0  0  0  0  0  0  0
    3.8735    1.0557    3.4613 C   0  0  3  0  0  0  0  0  0  0  0  0
    5.2986    0.5442    3.3940 C   0  0  0  0  0  0  0  0  0  0  0  0
    6.2663    1.2969    3.3163 O   0  0  0  0  0  0  0  0  0  0  0  0
    3.6609    2.0661    2.5713 F   0  0  0  0  0  0  0  0  0  0  0  0
  1  2  1  0  0  0  0
  2  3  2  0  0  0  0
  3  4  1  0  0  0  0
  3 52  1  0  0  0  0
  4  5  1  0  0  0  0
  5  6  1  6  0  0  0
  5 49  1  0  0  0  0
  6  7  1  0  0  0  0
  7  8  2  0  0  0  0
  7 12  1  0  0  0  0
  8  9  1  0  0  0  0
  8 26  1  0  0  0  0
  9 10  1  0  0  0  0
 10 11  2  0  0  0  0
 10 21  1  0  0  0  0
 11 12  1  0  0  0  0
 11 13  1  0  0  0  0
 13 14  1  0  0  0  0
 13 19  1  0  0  0  0
 14 15  1  0  0  0  0
 15 16  2  0  0  0  0
 15 17  1  0  0  0  0
 17 18  1  0  0  0  0
 18 19  1  0  0  0  0
 18 25  1  0  0  0  0
 19 20  2  0  0  0  0
 20 21  1  0  0  0  0
 20 22  1  0  0  0  0
 22 23  1  0  0  0  0
 22 24  1  0  0  0  0
 23 24  1  0  0  0  0
 26 27  2  0  0  0  0
 26 32  1  0  0  0  0
 27 28  1  0  0  0  0
 28 29  1  0  0  0  0
 28 30  2  0  0  0  0
 30 31  1  0  0  0  0
 31 32  2  0  0  0  0
 31 42  1  0  0  0  0
 32 33  1  0  0  0  0
 33 34  2  0  0  0  0
 34 35  1  0  0  0  0
 34 41  1  0  0  0  0
 35 36  2  0  0  0  0
 35 37  1  0  0  0  0
 37 38  2  0  0  0  0
 39 37  1  1  0  0  0
 39 40  1  0  0  0  0
 39 44  1  0  0  0  0
 40 41  1  0  0  0  0
 41 42  2  0  0  0  0
 42 43  1  0  0  0  0
 44 45  1  6  0  0  0
 44 46  1  0  0  0  0
 44 47  1  0  0  0  0
 46 47  1  0  0  0  0
 47 48  2  0  0  0  0
 49 50  2  0  0  0  0
 49 51  1  0  0  0  0
 51 52  1  0  0  0  0
 51 54  1  0  0  0  0
 52 53  2  0  0  0  0
M  CHG  2  21   1  32   1
M  END
$$$$