
 OpenBabel11222018033D

 55 63  0  0  1  0  0  0  0  0999 V2000
   -0.3648    3.3981   -1.5660 O   0  0  0  0  0  0  0  0  0  0  0  0
    0.6420    2.9636   -0.7395 C   0  0  0  0  0  0  0  0  0  0  0  0
    1.5792    2.1016   -1.1481 C   0  0  0  0  0  0  0  0  0  0  0  0
    1.5294    1.5872   -2.4334 O   0  0  0  0  0  0  0  0  0  0  0  0
    2.8077    1.4427   -3.0186 C   0  0  2  0  0  0  0  0  0  0  0  0
    2.6795    0.9921   -4.3793 O   0  0  0  0  0  0  0  0  0  0  0  0
    2.5045    1.9118   -5.4010 C   0  0  0  0  0  0  0  0  0  0  0  0
    2.3815    1.5056   -6.6882 C   0  0  0  0  0  0  0  0  0  0  0  0
    2.2313    2.4331   -7.7355 O   0  0  0  0  0  0  0  0  0  0  0  0
    2.2554    3.8091   -7.4817 C   0  0  0  0  0  0  0  0  0  0  0  0
    2.4024    4.2785   -6.2328 C   0  0  0  0  0  0  0  0  0  0  0  0
    2.4767    3.3757   -5.0477 C   0  0  0  0  0  0  0  0  0  0  0  0
    2.5462    5.7433   -5.9332 C   0  0  3  0  0  0  0  0  0  0  0  0
    3.8571    5.9177   -5.4217 O   0  0  0  0  0  0  0  0  0  0  0  0
    4.2617    7.1796   -5.1236 C   0  0  0  0  0  0  0  0  0  0  0  0
    5.2391    7.3801   -4.4227 O   0  0  0  0  0  0  0  0  0  0  0  0
    3.5229    8.1781   -5.6586 O   0  0  0  0  0  0  0  0  0  0  0  0
    2.6458    8.0025   -6.7668 C   0  0  3  0  0  0  0  0  0  0  0  0
    2.4673    6.5753   -7.1529 C   0  0  0  0  0  0  0  0  0  0  0  0
    2.2640    6.0510   -8.3839 C   0  0  0  0  0  0  0  0  0  0  0  0
    2.1493    4.6719   -8.5503 O   0  3  0  0  0  0  0  0  0  0  0  0
    2.1317    6.8374   -9.6364 C   0  0  0  0  0  0  0  0  0  0  0  0
    2.5600    6.2718  -10.8878 O   0  0  0  0  0  0  0  0  0  0  0  0
    1.1576    6.4576  -10.6229 O   0  0  0  0  0  0  0  0  0  0  0  0
    1.3576    8.4473   -6.3970 O   0  0  0  0  0  0  0  0  0  0  0  0
    2.4014    0.0555   -7.1104 C   0  0  0  0  0  0  0  0  0  0  0  0
    3.2242   -0.8453   -6.4243 C   0  0  0  0  0  0  0  0  0  0  0  0
    3.2571   -2.1448   -6.7340 N   0  3  0  0  0  0  0  0  0  0  0  0
    4.0278   -2.9718   -6.0006 F   0  0  0  0  0  0  0  0  0  0  0  0
    2.5688   -2.6522   -7.7341 N   0  0  0  0  0  0  0  0  0  0  0  0
    1.7776   -1.8620   -8.4606 C   0  0  0  0  0  0  0  0  0  0  0  0
    1.6419   -0.4825   -8.1860 C   0  0  0  0  0  0  0  0  0  0  0  0
    0.7456    0.2513   -8.9992 C   0  0  0  0  0  0  0  0  0  0  0  0
    0.0422   -0.3468  -10.0546 C   0  0  0  0  0  0  0  0  0  0  0  0
   -0.8489    0.4634  -10.8805 C   0  0  0  0  0  0  0  0  0  0  0  0
   -0.8833    1.6767  -10.7346 O   0  0  0  0  0  0  0  0  0  0  0  0
   -1.7063   -0.2653  -11.8879 C   0  0  0  0  0  0  0  0  0  0  0  0
   -2.3205    0.3741  -12.7267 O   0  0  0  0  0  0  0  0  0  0  0  0
   -1.8139   -1.7631  -11.6681 C   0  0  1  0  0  0  0  0  0  0  0  0
   -0.5802   -2.3702  -11.2283 O   0  0  0  0  0  0  0  0  0  0  0  0
    0.1620   -1.6964  -10.3028 C   0  0  0  0  0  0  0  0  0  0  0  0
    1.0492   -2.4284   -9.5121 C   0  0  0  0  0  0  0  0  0  0  0  0
    1.1847   -3.7434   -9.7466 F   0  0  0  0  0  0  0  0  0  0  0  0
   -3.0085   -2.1029  -10.7854 C   0  0  1  0  0  0  0  0  0  0  0  0
   -4.3609   -1.7795  -11.2870 C   0  0  0  0  0  0  0  0  0  0  0  0
   -4.6549   -1.9915  -12.4533 O   0  0  0  0  0  0  0  0  0  0  0  0
   -2.9251   -3.4116  -10.1459 O   0  0  0  0  0  0  0  0  0  0  0  0
   -2.8524   -2.3327   -9.3662 C   0  0  0  0  0  0  0  0  0  0  0  0
   -2.0460   -1.9319   -8.5594 O   0  0  0  0  0  0  0  0  0  0  0  0
    3.6189    0.4195   -2.2584 C   0  0  0  0  0  0  0  0  0  0  0  0
    4.1942   -0.5323   -2.7697 O   0  0  0  0  0  0  0  0  0  0  0  0
    3.7011    0.7603   -0.7880 C   0  0  0  0  0  0  0  0  0  0  0  0
    4.6325    0.3376   -0.1259 O   0  0  0  0  0  0  0  0  0  0  0  0
    2.6686    1.7134   -0.1989 C   0  0  0  0  0  0  0  0  0  0  0  0
    2.7760    2.1627    0.9279 O   0  0  0  0  0  0  0  0  0  0  0  0
  1  2  1  0  0  0  0
  2  3  2  0  0  0  0
  3  4  1  0  0  0  0
  3 54  1  0  0  0  0
  4  5  1  0  0  0  0
  5  6  1  6  0  0  0
  5 50  1  0  0  0  0
  6  7  1  0  0  0  0
  7  8  2  0  0  0  0
  7 12  1  0  0  0  0
  8  9  1  0  0  0  0
  8 26  1  0  0  0  0
  9 10  1  0  0  0  0
 10 11  2  0  0  0  0
 10 21  1  0  0  0  0
 11 12  1  0  0  0  0
 11 13  1  0  0  0  0
 13 14  1  0  0  0  0
 13 19  1  0  0  0  0
 14 15  1  0  0  0  0
 15 16  2  0  0  0  0
 15 17  1  0  0  0  0
 17 18  1  0  0  0  0
 18 19  1  0  0  0  0
 18 25  1  0  0  0  0
 19 20  2  0  0  0  0
 20 21  1  0  0  0  0
 20 22  1  0  0  0  0
 22 23  1  0  0  0  0
 22 24  1  0  0  0  0
 23 24  1  0  0  0  0
 26 27  2  0  0  0  0
 26 32  1  0  0  0  0
 27 28  1  0  0  0  0
 28 29  1  0  0  0  0
 28 30  2  0  0  0  0
 30 31  1  0  0  0  0
 31 32  2  0  0  0  0
 31 42  1  0  0  0  0
 32 33  1  0  0  0  0
 33 34  2  0  0  0  0
 34 35  1  0  0  0  0
 34 41  1  0  0  0  0
 35 36  2  0  0  0  0
 35 37  1  0  0  0  0
 37 38  2  0  0  0  0
 39 37  1  1  0  0  0
 39 40  1  0  0  0  0
 39 44  1  0  0  0  0
 40 41  1  0  0  0  0
 41 42  2  0  0  0  0
 42 43  1  0  0  0  0
 44 45  1  6  0  0  0
 44 47  1  0  0  0  0
 44 48  1  0  0  0  0
 45 46  2  0  0  0  0
 47 48  1  0  0  0  0
 48 49  2  0  0  0  0
 50 51  2  0  0  0  0
 50 52  1  0  0  0  0
 52 53  2  0  0  0  0
 52 54  1  0  0  0  0
 54 55  2  0  0  0  0
M  CHG  2  21   1  28   1
M  END
$$$$