
 OpenBabel11262000243D

 54 62  0  0  1  0  0  0  0  0999 V2000
    5.9405   -6.0325   -5.1563 O   0  0  0  0  0  0  0  0  0  0  0  0
    5.8364   -6.1928   -3.7990 C   0  0  0  0  0  0  0  0  0  0  0  0
    5.0711   -5.4071   -3.0296 C   0  0  0  0  0  0  0  0  0  0  0  0
    4.4081   -4.3180   -3.5564 O   0  0  0  0  0  0  0  0  0  0  0  0
    3.1247   -4.0250   -3.0135 C   0  0  2  0  0  0  0  0  0  0  0  0
    2.5895   -2.8110   -3.5874 O   0  0  0  0  0  0  0  0  0  0  0  0
    2.5029   -2.7609   -4.9754 C   0  0  0  0  0  0  0  0  0  0  0  0
    2.6615   -1.6087   -5.6666 C   0  0  0  0  0  0  0  0  0  0  0  0
    2.6332   -1.5446   -7.0640 O   0  0  0  0  0  0  0  0  0  0  0  0
    2.7567   -2.7283   -7.7767 C   0  0  0  0  0  0  0  0  0  0  0  0
    2.5756   -3.9474   -7.1636 C   0  0  0  0  0  0  0  0  0  0  0  0
    2.1725   -4.0205   -5.7316 C   0  0  0  0  0  0  0  0  0  0  0  0
    2.7811   -5.0859   -7.9345 C   0  0  0  0  0  0  0  0  0  0  0  0
    2.6171   -6.3269   -7.3075 O   0  0  0  0  0  0  0  0  0  0  0  0
    2.7058   -7.5074   -8.0081 C   0  0  0  0  0  0  0  0  0  0  0  0
    2.4752   -8.6209   -7.4112 N   0  0  0  0  0  0  0  0  0  0  0  0
    2.9928   -7.4756   -9.3180 O   0  0  0  0  0  0  0  0  0  0  0  0
    3.4519   -6.2934   -9.9722 C   0  0  3  0  0  0  0  0  0  0  0  0
    3.1629   -5.0171   -9.2581 C   0  0  0  0  0  0  0  0  0  0  0  0
    3.3037   -3.7428   -9.8285 C   0  0  0  0  0  0  0  0  0  0  0  0
    3.0951   -2.6110   -9.0800 N   0  0  0  0  0  0  0  0  0  0  0  0
    3.7097   -3.5558  -11.2759 C   0  0  0  0  0  0  0  0  0  0  0  0
    2.8307   -4.0749  -12.2890 O   0  0  0  0  0  0  0  0  0  0  0  0
    2.9295   -2.6544  -12.0801 O   0  0  0  0  0  0  0  0  0  0  0  0
    4.8557   -6.4005  -10.1467 O   0  0  0  0  0  0  0  0  0  0  0  0
    2.8420   -0.2875   -5.0180 C   0  0  0  0  0  0  0  0  0  0  0  0
    1.6940    0.4504   -4.7163 C   0  0  0  0  0  0  0  0  0  0  0  0
    1.8442    1.6821   -4.1168 C   0  0  0  0  0  0  0  0  0  0  0  0
    0.7463    2.3939   -3.8252 F   0  0  0  0  0  0  0  0  0  0  0  0
    3.0317    2.2274   -3.8037 N   0  0  0  0  0  0  0  0  0  0  0  0
    4.1494    1.5427   -4.0969 C   0  0  0  0  0  0  0  0  0  0  0  0
    4.1155    0.2656   -4.7113 C   0  0  0  0  0  0  0  0  0  0  0  0
    5.3439   -0.3734   -5.0014 C   0  0  0  0  0  0  0  0  0  0  0  0
    6.5676    0.2489   -4.7166 C   0  0  0  0  0  0  0  0  0  0  0  0
    7.8236   -0.3775   -5.1264 C   0  0  0  0  0  0  0  0  0  0  0  0
    7.8958   -1.5508   -5.4468 O   0  0  0  0  0  0  0  0  0  0  0  0
    9.0126    0.5455   -5.1859 C   0  0  0  0  0  0  0  0  0  0  0  0
    9.8354    0.4434   -6.0833 O   0  0  0  0  0  0  0  0  0  0  0  0
    9.0244    1.6068   -4.1068 C   0  0  1  0  0  0  0  0  0  0  0  0
    7.7465    2.1584   -3.7593 O   0  0  0  0  0  0  0  0  0  0  0  0
    6.6083    1.4853   -4.0997 C   0  0  0  0  0  0  0  0  0  0  0  0
    5.3938    2.1076   -3.7966 C   0  0  0  0  0  0  0  0  0  0  0  0
    5.4363    3.3151   -3.2039 F   0  0  0  0  0  0  0  0  0  0  0  0
    9.7633    1.2176   -2.8538 C   0  0  1  0  0  0  0  0  0  0  0  0
    9.8272    2.2184   -1.8134 O   0  0  0  0  0  0  0  0  0  0  0  0
    9.5599   -0.1146   -2.3800 O   0  0  0  0  0  0  0  0  0  0  0  0
   10.7916    0.1945   -2.8174 C   0  0  0  0  0  0  0  0  0  0  0  0
   11.4818   -0.3291   -3.6717 O   0  0  0  0  0  0  0  0  0  0  0  0
    3.1425   -3.8957   -1.4981 C   0  0  0  0  0  0  0  0  0  0  0  0
    2.5271   -3.0711   -0.8379 O   0  0  0  0  0  0  0  0  0  0  0  0
    3.9372   -4.9829   -0.8215 C   0  0  0  0  0  0  0  0  0  0  0  0
    3.6604   -5.3160    0.3215 O   0  0  0  0  0  0  0  0  0  0  0  0
    5.0212   -5.7143   -1.5768 C   0  0  0  0  0  0  0  0  0  0  0  0
    5.7628   -6.5084   -1.0208 O   0  0  0  0  0  0  0  0  0  0  0  0
  1  2  1  0  0  0  0
  2  3  2  0  0  0  0
  3  4  1  0  0  0  0
  3 53  1  0  0  0  0
  4  5  1  0  0  0  0
  5  6  1  6  0  0  0
  5 49  1  0  0  0  0
  6  7  1  0  0  0  0
  7  8  2  0  0  0  0
  7 12  1  0  0  0  0
  8  9  1  0  0  0  0
  8 26  1  0  0  0  0
  9 10  1  0  0  0  0
 10 11  2  0  0  0  0
 10 21  1  0  0  0  0
 11 12  1  0  0  0  0
 11 13  1  0  0  0  0
 13 14  1  0  0  0  0
 13 19  2  0  0  0  0
 14 15  1  0  0  0  0
 15 16  2  0  0  0  0
 15 17  1  0  0  0  0
 17 18  1  0  0  0  0
 18 19  1  0  0  0  0
 18 25  1  0  0  0  0
 19 20  1  0  0  0  0
 20 21  2  0  0  0  0
 20 22  1  0  0  0  0
 22 23  1  0  0  0  0
 22 24  1  0  0  0  0
 23 24  1  0  0  0  0
 26 27  2  0  0  0  0
 26 32  1  0  0  0  0
 27 28  1  0  0  0  0
 28 29  1  0  0  0  0
 28 30  2  0  0  0  0
 30 31  1  0  0  0  0
 31 32  2  0  0  0  0
 31 42  1  0  0  0  0
 32 33  1  0  0  0  0
 33 34  2  0  0  0  0
 34 35  1  0  0  0  0
 34 41  1  0  0  0  0
 35 36  2  0  0  0  0
 35 37  1  0  0  0  0
 37 38  2  0  0  0  0
 39 37  1  6  0  0  0
 39 40  1  0  0  0  0
 39 44  1  0  0  0  0
 40 41  1  0  0  0  0
 41 42  2  0  0  0  0
 42 43  1  0  0  0  0
 44 45  1  1  0  0  0
 44 46  1  0  0  0  0
 44 47  1  0  0  0  0
 46 47  1  0  0  0  0
 47 48  2  0  0  0  0
 49 50  2  0  0  0  0
 49 51  1  0  0  0  0
 51 52  2  0  0  0  0
 51 53  1  0  0  0  0
 53 54  2  0  0  0  0
M  END
$$$$