
 OpenBabel11272002363D

 54 63  0  0  1  0  0  0  0  0999 V2000
  -12.7290   -8.4873   -8.0767 O   0  0  0  0  0  0  0  0  0  0  0  0
  -13.4684   -7.4154   -7.6408 C   0  0  0  0  0  0  0  0  0  0  0  0
  -13.1248   -6.6780   -6.5782 C   0  0  0  0  0  0  0  0  0  0  0  0
  -12.0061   -6.9861   -5.8258 O   0  0  0  0  0  0  0  0  0  0  0  0
  -11.2674   -5.8234   -5.4499 C   0  0  2  0  0  0  0  0  0  0  0  0
   -9.9995   -6.1682   -4.8795 O   0  0  0  0  0  0  0  0  0  0  0  0
   -9.0270   -6.6592   -5.7409 C   0  0  0  0  0  0  0  0  0  0  0  0
   -7.7175   -6.4502   -5.4940 C   0  0  0  0  0  0  0  0  0  0  0  0
   -6.6976   -6.9531   -6.2932 O   0  0  0  0  0  0  0  0  0  0  0  0
   -7.0158   -7.7168   -7.4073 C   0  0  0  0  0  0  0  0  0  0  0  0
   -8.2896   -7.9934   -7.7347 C   0  0  0  0  0  0  0  0  0  0  0  0
   -9.4473   -7.5071   -6.9126 C   0  0  0  0  0  0  0  0  0  0  0  0
   -8.6423   -8.8017   -8.9508 C   0  0  3  0  0  0  0  0  0  0  0  0
   -9.4016   -7.9631   -9.8126 O   0  0  0  0  0  0  0  0  0  0  0  0
   -9.7542   -8.4860  -11.0024 C   0  0  0  0  0  0  0  0  0  0  0  0
  -10.6950   -7.9542  -11.6839 N   0  0  0  0  0  0  0  0  0  0  0  0
   -9.0941   -9.5665  -11.4508 O   0  0  0  0  0  0  0  0  0  0  0  0
   -7.8326   -9.9659  -10.9271 C   0  0  3  0  0  0  0  0  0  0  0  0
   -7.4360   -9.2067   -9.7121 C   0  0  0  0  0  0  0  0  0  0  0  0
   -6.1786   -8.8914   -9.3262 C   0  0  0  0  0  0  0  0  0  0  0  0
   -5.9669   -8.1638   -8.1683 O   0  3  0  0  0  0  0  0  0  0  0  0
   -4.9658   -9.2643  -10.0879 C   0  0  0  0  0  0  0  0  0  0  0  0
   -4.4203   -8.3814  -11.0765 O   0  0  0  0  0  0  0  0  0  0  0  0
   -3.7136   -8.6007   -9.8404 O   0  0  0  0  0  0  0  0  0  0  0  0
   -7.9185  -11.3144  -10.5092 O   0  0  0  0  0  0  0  0  0  0  0  0
   -7.2403   -5.6774   -4.3326 C   0  0  0  0  0  0  0  0  0  0  0  0
   -6.8490   -6.4511   -3.2976 N   0  0  0  0  0  0  0  0  0  0  0  0
   -6.4349   -5.8091   -2.1925 C   0  0  0  0  0  0  0  0  0  0  0  0
   -6.0547   -6.5614   -1.1511 F   0  0  0  0  0  0  0  0  0  0  0  0
   -6.3591   -4.4336   -2.0731 C   0  0  0  0  0  0  0  0  0  0  0  0
   -6.7262   -3.6159   -3.1571 C   0  0  0  0  0  0  0  0  0  0  0  0
   -7.1709   -4.2630   -4.3368 C   0  0  0  0  0  0  0  0  0  0  0  0
   -7.4758   -3.4763   -5.4659 C   0  0  0  0  0  0  0  0  0  0  0  0
   -7.3179   -2.0891   -5.4419 C   0  0  0  0  0  0  0  0  0  0  0  0
   -6.9119   -1.4422   -4.2846 C   0  0  0  0  0  0  0  0  0  0  0  0
   -6.6509   -2.1898   -3.1178 C   0  0  0  0  0  0  0  0  0  0  0  0
   -6.1029   -1.5214   -1.9988 N   0  0  0  0  0  0  0  0  0  0  0  0
   -6.7271   -0.0804   -4.2092 O   0  0  0  0  0  0  0  0  0  0  0  0
   -7.2197    0.7066   -5.3170 C   0  0  1  0  0  0  0  0  0  0  0  0
   -7.0991    0.1204   -6.6557 C   0  0  0  0  0  0  0  0  0  0  0  0
   -6.6886    0.7106   -7.6392 O   0  0  0  0  0  0  0  0  0  0  0  0
   -7.5144   -1.3268   -6.6787 C   0  0  0  0  0  0  0  0  0  0  0  0
   -7.9539   -1.8537   -7.6896 O   0  0  0  0  0  0  0  0  0  0  0  0
   -8.3777    1.4704   -5.0944 O   0  0  0  0  0  0  0  0  0  0  0  0
   -7.1110    2.1958   -5.2326 C   0  0  1  0  0  0  0  0  0  0  0  0
   -6.3696    2.5101   -3.9801 O   0  0  0  0  0  0  0  0  0  0  0  0
   -7.2320    3.3840   -4.4410 C   0  0  0  0  0  0  0  0  0  0  0  0
   -7.1549    4.5678   -4.6837 O   0  0  0  0  0  0  0  0  0  0  0  0
  -12.0932   -5.0200   -4.4565 C   0  0  0  0  0  0  0  0  0  0  0  0
  -11.6757   -4.5017   -3.4322 O   0  0  0  0  0  0  0  0  0  0  0  0
  -13.5236   -4.8336   -4.9192 C   0  0  0  0  0  0  0  0  0  0  0  0
  -14.2990   -4.1382   -4.2855 O   0  0  0  0  0  0  0  0  0  0  0  0
  -13.9638   -5.5037   -6.2095 C   0  0  0  0  0  0  0  0  0  0  0  0
  -14.8592   -5.0579   -6.9043 O   0  0  0  0  0  0  0  0  0  0  0  0
  1  2  1  0  0  0  0
  2  3  2  0  0  0  0
  3  4  1  0  0  0  0
  3 53  1  0  0  0  0
  4  5  1  0  0  0  0
  5  6  1  1  0  0  0
  5 49  1  0  0  0  0
  6  7  1  0  0  0  0
  7  8  2  0  0  0  0
  7 12  1  0  0  0  0
  8  9  1  0  0  0  0
  8 26  1  0  0  0  0
  9 10  1  0  0  0  0
 10 11  2  0  0  0  0
 10 21  1  0  0  0  0
 11 12  1  0  0  0  0
 11 13  1  0  0  0  0
 13 14  1  0  0  0  0
 13 19  1  0  0  0  0
 14 15  1  0  0  0  0
 15 16  2  0  0  0  0
 15 17  1  0  0  0  0
 17 18  1  0  0  0  0
 18 19  1  0  0  0  0
 18 25  1  0  0  0  0
 19 20  2  0  0  0  0
 20 21  1  0  0  0  0
 20 22  1  0  0  0  0
 22 23  1  0  0  0  0
 22 24  1  0  0  0  0
 23 24  1  0  0  0  0
 26 27  2  0  0  0  0
 26 32  1  0  0  0  0
 27 28  1  0  0  0  0
 28 29  1  0  0  0  0
 28 30  2  0  0  0  0
 30 31  1  0  0  0  0
 31 32  2  0  0  0  0
 31 36  1  0  0  0  0
 32 33  1  0  0  0  0
 33 34  2  0  0  0  0
 34 35  1  0  0  0  0
 34 42  1  0  0  0  0
 35 36  2  0  0  0  0
 35 38  1  0  0  0  0
 36 37  1  0  0  0  0
 39 38  1  1  0  0  0
 39 40  1  0  0  0  0
 39 44  1  0  0  0  0
 39 45  1  0  0  0  0
 40 41  2  0  0  0  0
 40 42  1  0  0  0  0
 42 43  2  0  0  0  0
 45 44  1  1  0  0  0
 45 46  1  0  0  0  0
 45 47  1  0  0  0  0
 46 47  1  0  0  0  0
 47 48  2  0  0  0  0
 49 50  2  0  0  0  0
 49 51  1  0  0  0  0
 51 52  2  0  0  0  0
 51 53  1  0  0  0  0
 53 54  2  0  0  0  0
M  CHG  1  21   1
M  END
$$$$