
 OpenBabel11272002543D

 53 61  0  0  1  0  0  0  0  0999 V2000
    4.0071    6.0017   -5.8381 O   0  0  0  0  0  0  0  0  0  0  0  0
    3.1340    4.9648   -6.0492 C   0  0  0  0  0  0  0  0  0  0  0  0
    2.6438    4.2146   -5.0543 C   0  0  0  0  0  0  0  0  0  0  0  0
    3.0439    4.4411   -3.7486 O   0  0  0  0  0  0  0  0  0  0  0  0
    2.1789    3.9449   -2.7256 C   0  0  2  0  0  0  0  0  0  0  0  0
    2.7046    4.2656   -1.4294 O   0  0  0  0  0  0  0  0  0  0  0  0
    2.8429    5.6245   -1.1522 C   0  0  0  0  0  0  0  0  0  0  0  0
    3.8016    6.0849   -0.3202 C   0  0  0  0  0  0  0  0  0  0  0  0
    3.9729    7.4398   -0.0286 O   0  0  0  0  0  0  0  0  0  0  0  0
    3.0467    8.3659   -0.5025 C   0  0  0  0  0  0  0  0  0  0  0  0
    2.0038    7.9886   -1.2625 C   0  0  0  0  0  0  0  0  0  0  0  0
    1.8288    6.5763   -1.7275 C   0  0  0  0  0  0  0  0  0  0  0  0
    0.9479    8.9534   -1.7084 C   0  0  3  0  0  0  0  0  0  0  0  0
   -0.2493    8.6089   -1.0351 O   0  0  0  0  0  0  0  0  0  0  0  0
   -1.3469    9.3866   -1.2408 C   0  0  0  0  0  0  0  0  0  0  0  0
   -2.4648    9.0052   -0.9548 O   0  0  0  0  0  0  0  0  0  0  0  0
   -1.1052   10.6102   -1.7795 O   0  0  0  0  0  0  0  0  0  0  0  0
    0.1803   11.2531   -1.7963 C   0  0  0  0  0  0  0  0  0  0  0  0
    1.2673   10.3499   -1.3228 C   0  0  0  0  0  0  0  0  0  0  0  0
    2.3665   10.6812   -0.6040 C   0  0  0  0  0  0  0  0  0  0  0  0
    3.2341    9.6831   -0.1610 O   0  3  0  0  0  0  0  0  0  0  0  0
    2.7316   12.0652   -0.2344 C   0  0  3  0  0  0  0  0  0  0  0  0
    4.1230   12.3479   -0.1142 N   0  0  0  0  0  0  0  0  0  0  0  0
    3.4890   12.2566    0.9514 N   0  0  0  0  0  0  0  0  0  0  0  0
    4.7071    5.1830    0.4203 C   0  0  0  0  0  0  0  0  0  0  0  0
    4.2557    4.8710    1.6500 N   0  0  0  0  0  0  0  0  0  0  0  0
    4.9934    3.9954    2.3412 C   0  0  0  0  0  0  0  0  0  0  0  0
    4.5679    3.6709    3.5692 F   0  0  0  0  0  0  0  0  0  0  0  0
    6.1387    3.4464    1.9246 N   0  0  0  0  0  0  0  0  0  0  0  0
    6.5972    3.7881    0.7125 C   0  0  0  0  0  0  0  0  0  0  0  0
    5.9132    4.6969   -0.1067 C   0  0  0  0  0  0  0  0  0  0  0  0
    6.4696    5.0706   -1.3536 C   0  0  0  0  0  0  0  0  0  0  0  0
    7.6888    4.5311   -1.7810 C   0  0  0  0  0  0  0  0  0  0  0  0
    8.3008    5.0107   -3.0230 C   0  0  0  0  0  0  0  0  0  0  0  0
    7.7359    5.8260   -3.7358 O   0  0  0  0  0  0  0  0  0  0  0  0
    9.6980    4.5222   -3.3130 C   0  0  0  0  0  0  0  0  0  0  0  0
   10.4573    5.1885   -4.0019 O   0  0  0  0  0  0  0  0  0  0  0  0
   10.0330    3.1958   -2.6708 C   0  0  1  0  0  0  0  0  0  0  0  0
    9.5373    3.0063   -1.3410 O   0  0  0  0  0  0  0  0  0  0  0  0
    8.3516    3.5961   -1.0057 C   0  0  0  0  0  0  0  0  0  0  0  0
    7.7960    3.2469    0.2316 C   0  0  0  0  0  0  0  0  0  0  0  0
    8.4592    2.3613    0.9958 F   0  0  0  0  0  0  0  0  0  0  0  0
    9.6071    2.0575   -3.5536 C   0  0  1  0  0  0  0  0  0  0  0  0
    8.2042    1.9776   -3.8723 O   0  0  0  0  0  0  0  0  0  0  0  0
   10.5044    1.7827   -4.6335 O   0  0  0  0  0  0  0  0  0  0  0  0
   10.3871    0.7616   -3.6406 C   0  0  3  0  0  0  0  0  0  0  0  0
    9.6429   -0.3880   -4.0784 O   0  0  0  0  0  0  0  0  0  0  0  0
    1.9770    2.4560   -2.9300 C   0  0  0  0  0  0  0  0  0  0  0  0
    2.2588    1.5561   -2.1589 O   0  0  0  0  0  0  0  0  0  0  0  0
    1.3389    2.1966   -4.2686 C   0  0  0  0  0  0  0  0  0  0  0  0
    0.4728    1.3468   -4.3832 O   0  0  0  0  0  0  0  0  0  0  0  0
    1.7006    3.1155   -5.4201 C   0  0  0  0  0  0  0  0  0  0  0  0
    1.2162    2.9801   -6.5308 O   0  0  0  0  0  0  0  0  0  0  0  0
  1  2  1  0  0  0  0
  2  3  2  0  0  0  0
  3  4  1  0  0  0  0
  3 52  1  0  0  0  0
  4  5  1  0  0  0  0
  5  6  1  1  0  0  0
  5 48  1  0  0  0  0
  6  7  1  0  0  0  0
  7  8  2  0  0  0  0
  7 12  1  0  0  0  0
  8  9  1  0  0  0  0
  8 25  1  0  0  0  0
  9 10  1  0  0  0  0
 10 11  2  0  0  0  0
 10 21  1  0  0  0  0
 11 12  1  0  0  0  0
 11 13  1  0  0  0  0
 13 14  1  0  0  0  0
 13 19  1  0  0  0  0
 14 15  1  0  0  0  0
 15 16  2  0  0  0  0
 15 17  1  0  0  0  0
 17 18  1  0  0  0  0
 18 19  1  0  0  0  0
 19 20  2  0  0  0  0
 20 21  1  0  0  0  0
 20 22  1  0  0  0  0
 22 23  1  0  0  0  0
 22 24  1  0  0  0  0
 23 24  2  0  0  0  0
 25 26  2  0  0  0  0
 25 31  1  0  0  0  0
 26 27  1  0  0  0  0
 27 28  1  0  0  0  0
 27 29  2  0  0  0  0
 29 30  1  0  0  0  0
 30 31  2  0  0  0  0
 30 41  1  0  0  0  0
 31 32  1  0  0  0  0
 32 33  2  0  0  0  0
 33 34  1  0  0  0  0
 33 40  1  0  0  0  0
 34 35  2  0  0  0  0
 34 36  1  0  0  0  0
 36 37  2  0  0  0  0
 38 36  1  6  0  0  0
 38 39  1  0  0  0  0
 38 43  1  0  0  0  0
 39 40  1  0  0  0  0
 40 41  2  0  0  0  0
 41 42  1  0  0  0  0
 43 44  1  6  0  0  0
 43 45  1  0  0  0  0
 43 46  1  0  0  0  0
 45 46  1  0  0  0  0
 46 47  1  0  0  0  0
 48 49  2  0  0  0  0
 48 50  1  0  0  0  0
 50 51  2  0  0  0  0
 50 52  1  0  0  0  0
 52 53  2  0  0  0  0
M  CHG  1  21   1
M  END
$$$$