
 OpenBabel11242000303D

 54 62  0  0  1  0  0  0  0  0999 V2000
   -0.0221    5.9404    5.4704 O   0  0  0  0  0  0  0  0  0  0  0  0
    0.5352    6.2440    4.2548 C   0  0  0  0  0  0  0  0  0  0  0  0
    1.4088    5.4317    3.6531 C   0  0  0  0  0  0  0  0  0  0  0  0
    1.8548    4.2774    4.2693 O   0  0  0  0  0  0  0  0  0  0  0  0
    1.6839    3.0888    3.5180 C   0  0  2  0  0  0  0  0  0  0  0  0
    2.3415    1.9046    4.0767 O   0  0  0  0  0  0  0  0  0  0  0  0
    2.4722    1.6791    5.4458 C   0  0  0  0  0  0  0  0  0  0  0  0
    2.6846    0.4362    5.9768 C   0  0  0  0  0  0  0  0  0  0  0  0
    3.0372    0.3168    7.3447 N   0  0  0  0  0  0  0  0  0  0  0  0
    3.1936    1.4054    8.2012 C   0  0  0  0  0  0  0  0  0  0  0  0
    2.9539    2.6452    7.7550 C   0  0  0  0  0  0  0  0  0  0  0  0
    2.5072    2.8976    6.3505 C   0  0  0  0  0  0  0  0  0  0  0  0
    3.1466    3.8752    8.5941 C   0  0  3  0  0  0  0  0  0  0  0  0
    1.8903    4.5042    8.7475 O   0  0  0  0  0  0  0  0  0  0  0  0
    1.8751    5.6612    9.4654 C   0  0  0  0  0  0  0  0  0  0  0  0
    0.9589    6.4604    9.3642 O   0  0  0  0  0  0  0  0  0  0  0  0
    2.9216    5.8502   10.3031 O   0  0  0  0  0  0  0  0  0  0  0  0
    3.8208    4.8162   10.7009 C   0  0  3  0  0  0  0  0  0  0  0  0
    3.6086    3.5442    9.9558 C   0  0  0  0  0  0  0  0  0  0  0  0
    3.7977    2.2735   10.3794 C   0  0  0  0  0  0  0  0  0  0  0  0
    3.5837    1.1990    9.5115 O   0  3  0  0  0  0  0  0  0  0  0  0
    4.2946    1.9109   11.7301 C   0  0  0  0  0  0  0  0  0  0  0  0
    4.4629    0.5280   12.0923 O   0  0  0  0  0  0  0  0  0  0  0  0
    5.6126    1.3717   11.8988 O   0  0  0  0  0  0  0  0  0  0  0  0
    5.1369    5.2126   10.3705 O   0  0  0  0  0  0  0  0  0  0  0  0
    2.5862   -0.8486    5.1647 C   0  0  0  0  0  0  0  0  0  0  0  0
    2.9945   -0.8475    3.8247 C   0  0  0  0  0  0  0  0  0  0  0  0
    2.9610   -1.9555    3.0784 N   0  3  0  0  0  0  0  0  0  0  0  0
    3.3306   -1.8853    1.7862 F   0  0  0  0  0  0  0  0  0  0  0  0
    2.5874   -3.1242    3.5575 N   0  0  0  0  0  0  0  0  0  0  0  0
    2.1374   -3.2151    4.8032 C   0  0  0  0  0  0  0  0  0  0  0  0
    2.0837   -2.0932    5.6622 C   0  0  0  0  0  0  0  0  0  0  0  0
    1.4813   -2.3080    6.9364 C   0  0  0  0  0  0  0  0  0  0  0  0
    1.0013   -3.5681    7.3359 C   0  0  0  0  0  0  0  0  0  0  0  0
    0.3454   -3.7213    8.6405 C   0  0  0  0  0  0  0  0  0  0  0  0
    0.3236   -2.7880    9.4277 O   0  0  0  0  0  0  0  0  0  0  0  0
   -0.2792   -5.0671    8.9313 C   0  0  0  0  0  0  0  0  0  0  0  0
   -1.1977   -5.1673    9.7278 O   0  0  0  0  0  0  0  0  0  0  0  0
    0.3583   -6.2125    8.1764 C   0  0  1  0  0  0  0  0  0  0  0  0
    0.6594   -5.9184    6.8021 O   0  0  0  0  0  0  0  0  0  0  0  0
    1.1078   -4.6638    6.5027 C   0  0  0  0  0  0  0  0  0  0  0  0
    1.6747   -4.4622    5.2464 C   0  0  0  0  0  0  0  0  0  0  0  0
    1.7663   -5.5092    4.4091 F   0  0  0  0  0  0  0  0  0  0  0  0
    1.5938   -6.6790    8.8741 C   0  0  1  0  0  0  0  0  0  0  0  0
    2.6795   -5.7172    8.9802 O   0  0  0  0  0  0  0  0  0  0  0  0
    1.3807   -7.5022   10.0113 O   0  0  0  0  0  0  0  0  0  0  0  0
    1.9997   -8.0893    8.9610 C   0  0  0  0  0  0  0  0  0  0  0  0
    3.1146   -8.5376    8.8746 O   0  0  0  0  0  0  0  0  0  0  0  0
    2.1932    3.2261    2.0810 C   0  0  0  0  0  0  0  0  0  0  0  0
    2.1690    2.3353    1.2428 O   0  0  0  0  0  0  0  0  0  0  0  0
    2.7490    4.6027    1.7759 C   0  0  0  0  0  0  0  0  0  0  0  0
    3.8427    4.7278    1.2553 O   0  0  0  0  0  0  0  0  0  0  0  0
    1.9711    5.7782    2.3267 C   0  0  0  0  0  0  0  0  0  0  0  0
    1.8008    6.8166    1.7239 O   0  0  0  0  0  0  0  0  0  0  0  0
  1  2  1  0  0  0  0
  2  3  2  0  0  0  0
  3  4  1  0  0  0  0
  3 53  1  0  0  0  0
  4  5  1  0  0  0  0
  5  6  1  1  0  0  0
  5 49  1  0  0  0  0
  6  7  1  0  0  0  0
  7  8  2  0  0  0  0
  7 12  1  0  0  0  0
  8  9  1  0  0  0  0
  8 26  1  0  0  0  0
  9 10  1  0  0  0  0
 10 11  2  0  0  0  0
 10 21  1  0  0  0  0
 11 12  1  0  0  0  0
 11 13  1  0  0  0  0
 13 14  1  0  0  0  0
 13 19  1  0  0  0  0
 14 15  1  0  0  0  0
 15 16  2  0  0  0  0
 15 17  1  0  0  0  0
 17 18  1  0  0  0  0
 18 19  1  0  0  0  0
 18 25  1  0  0  0  0
 19 20  2  0  0  0  0
 20 21  1  0  0  0  0
 20 22  1  0  0  0  0
 22 23  1  0  0  0  0
 22 24  1  0  0  0  0
 23 24  1  0  0  0  0
 26 27  2  0  0  0  0
 26 32  1  0  0  0  0
 27 28  1  0  0  0  0
 28 29  1  0  0  0  0
 28 30  2  0  0  0  0
 30 31  1  0  0  0  0
 31 32  2  0  0  0  0
 31 42  1  0  0  0  0
 32 33  1  0  0  0  0
 33 34  2  0  0  0  0
 34 35  1  0  0  0  0
 34 41  1  0  0  0  0
 35 36  2  0  0  0  0
 35 37  1  0  0  0  0
 37 38  2  0  0  0  0
 39 37  1  1  0  0  0
 39 40  1  0  0  0  0
 39 44  1  0  0  0  0
 40 41  1  0  0  0  0
 41 42  2  0  0  0  0
 42 43  1  0  0  0  0
 44 45  1  1  0  0  0
 44 46  1  0  0  0  0
 44 47  1  0  0  0  0
 46 47  1  0  0  0  0
 47 48  2  0  0  0  0
 49 50  2  0  0  0  0
 49 51  1  0  0  0  0
 51 52  2  0  0  0  0
 51 53  1  0  0  0  0
 53 54  2  0  0  0  0
M  CHG  2  21   1  28   1
M  END
$$$$