
 OpenBabel11222000583D

 54 63  0  0  1  0  0  0  0  0999 V2000
    5.2170    4.1373    3.5954 O   0  0  0  0  0  0  0  0  0  0  0  0
    4.4325    4.7857    2.6736 C   0  0  0  0  0  0  0  0  0  0  0  0
    3.1923    4.3801    2.3747 C   0  0  0  0  0  0  0  0  0  0  0  0
    2.6561    3.2401    2.9677 O   0  0  0  0  0  0  0  0  0  0  0  0
    1.2484    3.3014    3.1888 C   0  0  2  0  0  0  0  0  0  0  0  0
    0.7256    2.0705    3.7902 O   0  0  0  0  0  0  0  0  0  0  0  0
    1.3004    1.5899    4.9553 C   0  0  0  0  0  0  0  0  0  0  0  0
    1.3408    0.2681    5.2891 C   0  0  0  0  0  0  0  0  0  0  0  0
    1.8869   -0.1325    6.5523 O   0  0  0  0  0  0  0  0  0  0  0  0
    2.3429    0.8253    7.4871 C   0  0  0  0  0  0  0  0  0  0  0  0
    2.2529    2.1356    7.2136 C   0  0  0  0  0  0  0  0  0  0  0  0
    1.7618    2.6543    5.9123 C   0  0  0  0  0  0  0  0  0  0  0  0
    2.7000    3.2055    8.1647 C   0  0  3  0  0  0  0  0  0  0  0  0
    1.5544    3.9250    8.5784 O   0  0  0  0  0  0  0  0  0  0  0  0
    1.7986    4.9847    9.3927 C   0  0  0  0  0  0  0  0  0  0  0  0
    0.9827    5.8969    9.5110 O   0  0  0  0  0  0  0  0  0  0  0  0
    2.9923    4.9778   10.0252 O   0  0  0  0  0  0  0  0  0  0  0  0
    3.7139    3.7706   10.2761 C   0  0  3  0  0  0  0  0  0  0  0  0
    3.2855    2.6488    9.3939 C   0  0  0  0  0  0  0  0  0  0  0  0
    3.3836    1.3213    9.6225 C   0  0  0  0  0  0  0  0  0  0  0  0
    2.8918    0.4038    8.6911 O   0  3  0  0  0  0  0  0  0  0  0  0
    3.9902    0.7609   10.8536 C   0  0  0  0  0  0  0  0  0  0  0  0
    3.1863    0.4809   12.0057 O   0  0  0  0  0  0  0  0  0  0  0  0
    3.7409   -0.6024   11.2336 O   0  0  0  0  0  0  0  0  0  0  0  0
    5.0695    3.9827    9.9311 O   0  0  0  0  0  0  0  0  0  0  0  0
    0.7204   -0.8921    4.4959 C   0  0  0  0  0  0  0  0  0  0  0  0
    0.2703   -1.9956    5.2324 C   0  0  0  0  0  0  0  0  0  0  0  0
   -0.4190   -2.9944    4.6631 N   0  3  0  0  0  0  0  0  0  0  0  0
   -0.7706   -4.0619    5.4085 F   0  0  0  0  0  0  0  0  0  0  0  0
   -0.8106   -2.9598    3.4083 N   0  0  0  0  0  0  0  0  0  0  0  0
   -0.4098   -1.9662    2.6179 C   0  0  0  0  0  0  0  0  0  0  0  0
    0.4628   -0.9553    3.0851 C   0  0  0  0  0  0  0  0  0  0  0  0
    1.0013   -0.1026    2.0873 C   0  0  0  0  0  0  0  0  0  0  0  0
    0.4999   -0.0785    0.7728 C   0  0  0  0  0  0  0  0  0  0  0  0
    0.9334    0.9519   -0.1928 C   0  0  0  0  0  0  0  0  0  0  0  0
    2.0223    1.4928   -0.0684 O   0  0  0  0  0  0  0  0  0  0  0  0
   -0.0885    1.2526   -1.2732 C   0  0  3  0  0  0  0  0  0  0  0  0
    0.3786    2.0752   -2.3251 O   0  0  0  0  0  0  0  0  0  0  0  0
   -0.7946    2.3465   -3.1861 O   0  0  0  0  0  0  0  0  0  0  0  0
   -0.9421    1.2958   -4.0534 C   0  0  0  0  0  0  0  0  0  0  0  0
   -0.2900    0.1833   -4.1841 O   0  3  0  0  0  0  0  0  0  0  0  0
   -1.1127    0.0857   -3.1411 C   0  0  2  0  0  0  0  0  0  0  0  0
   -0.3678   -0.1171   -1.8490 C   0  0  2  0  0  0  0  0  0  0  0  0
   -1.0684   -0.9424   -0.8782 O   0  0  0  0  0  0  0  0  0  0  0  0
   -0.4789   -0.9689    0.3685 C   0  0  0  0  0  0  0  0  0  0  0  0
   -0.8774   -1.9339    1.2919 C   0  0  0  0  0  0  0  0  0  0  0  0
   -1.7498   -2.8744    0.8945 F   0  0  0  0  0  0  0  0  0  0  0  0
   -2.2393   -0.7655   -3.3802 O   0  0  0  0  0  0  0  0  0  0  0  0
    0.5361    3.4392    1.8561 C   0  0  0  0  0  0  0  0  0  0  0  0
   -0.4042    2.7466    1.4783 O   0  0  0  0  0  0  0  0  0  0  0  0
    1.1242    4.4958    0.9585 C   0  0  0  0  0  0  0  0  0  0  0  0
    0.5510    4.7667   -0.0853 O   0  0  0  0  0  0  0  0  0  0  0  0
    2.4257    5.1580    1.3562 C   0  0  0  0  0  0  0  0  0  0  0  0
    2.7604    6.2386    0.9078 O   0  0  0  0  0  0  0  0  0  0  0  0
  1  2  1  0  0  0  0
  2  3  2  0  0  0  0
  3  4  1  0  0  0  0
  3 53  1  0  0  0  0
  4  5  1  0  0  0  0
  5  6  1  6  0  0  0
  5 49  1  0  0  0  0
  6  7  1  0  0  0  0
  7  8  2  0  0  0  0
  7 12  1  0  0  0  0
  8  9  1  0  0  0  0
  8 26  1  0  0  0  0
  9 10  1  0  0  0  0
 10 11  2  0  0  0  0
 10 21  1  0  0  0  0
 11 12  1  0  0  0  0
 11 13  1  0  0  0  0
 13 14  1  0  0  0  0
 13 19  1  0  0  0  0
 14 15  1  0  0  0  0
 15 16  2  0  0  0  0
 15 17  1  0  0  0  0
 17 18  1  0  0  0  0
 18 19  1  0  0  0  0
 18 25  1  0  0  0  0
 19 20  2  0  0  0  0
 20 21  1  0  0  0  0
 20 22  1  0  0  0  0
 22 23  1  0  0  0  0
 22 24  1  0  0  0  0
 23 24  1  0  0  0  0
 26 27  2  0  0  0  0
 26 32  1  0  0  0  0
 27 28  1  0  0  0  0
 28 29  1  0  0  0  0
 28 30  2  0  0  0  0
 30 31  1  0  0  0  0
 31 32  2  0  0  0  0
 31 46  1  0  0  0  0
 32 33  1  0  0  0  0
 33 34  2  0  0  0  0
 34 35  1  0  0  0  0
 34 45  1  0  0  0  0
 35 36  2  0  0  0  0
 35 37  1  0  0  0  0
 37 38  1  0  0  0  0
 37 43  1  0  0  0  0
 38 39  1  0  0  0  0
 39 40  1  0  0  0  0
 40 41  2  0  0  0  0
 40 42  1  0  0  0  0
 41 42  1  0  0  0  0
 42 43  1  0  0  0  0
 42 48  1  1  0  0  0
 43 44  1  1  0  0  0
 44 45  1  0  0  0  0
 45 46  2  0  0  0  0
 46 47  1  0  0  0  0
 49 50  2  0  0  0  0
 49 51  1  0  0  0  0
 51 52  2  0  0  0  0
 51 53  1  0  0  0  0
 53 54  2  0  0  0  0
M  CHG  3  21   1  28   1  41   1
M  END
$$$$