
 OpenBabel10202001463D

 51 59  0  0  1  0  0  0  0  0999 V2000
    4.4707   -4.8168    5.3392 O   0  0  0  0  0  0  0  0  0  0  0  0
    5.1577   -4.2553    4.2931 C   0  0  0  0  0  0  0  0  0  0  0  0
    4.6187   -3.4200    3.3949 C   0  0  0  0  0  0  0  0  0  0  0  0
    3.3056   -3.0288    3.5347 O   0  0  0  0  0  0  0  0  0  0  0  0
    2.6765   -2.1714    2.5871 C   0  0  1  0  0  0  0  0  0  0  0  0
    1.6626   -1.3657    3.2411 O   0  0  0  0  0  0  0  0  0  0  0  0
    0.5237   -2.0021    3.7495 C   0  0  0  0  0  0  0  0  0  0  0  0
   -0.4733   -1.3101    4.3581 C   0  0  0  0  0  0  0  0  0  0  0  0
   -1.6204   -1.9234    4.8691 O   0  0  0  0  0  0  0  0  0  0  0  0
   -1.8095   -3.2853    4.7041 C   0  0  0  0  0  0  0  0  0  0  0  0
   -0.8873   -4.0553    4.1118 C   0  0  0  0  0  0  0  0  0  0  0  0
    0.3967   -3.5076    3.6024 C   0  0  0  0  0  0  0  0  0  0  0  0
   -1.1815   -5.5101    3.9482 C   0  0  0  0  0  0  0  0  0  0  0  0
   -0.3440   -6.2964    3.3538 N   0  0  0  0  0  0  0  0  0  0  0  0
   -0.6651   -7.6351    3.2073 C   0  0  0  0  0  0  0  0  0  0  0  0
    0.1282   -8.3546    2.6144 O   0  0  0  0  0  0  0  0  0  0  0  0
   -1.8311   -8.1984    3.6894 N   0  0  0  0  0  0  0  0  0  0  0  0
   -2.6789   -7.4407    4.2937 C   0  0  0  0  0  0  0  0  0  0  0  0
   -2.4681   -6.0071    4.4862 C   0  0  0  0  0  0  0  0  0  0  0  0
   -3.3248   -5.1519    5.0781 C   0  0  0  0  0  0  0  0  0  0  0  0
   -2.9889   -3.8096    5.1622 N   0  0  0  0  0  0  0  0  0  0  0  0
   -4.6339   -5.5250    5.6607 C   0  0  0  0  0  0  0  0  0  0  0  0
   -4.7577   -5.9405    7.0288 O   0  0  0  0  0  0  0  0  0  0  0  0
   -5.3064   -4.6763    6.6091 O   0  0  0  0  0  0  0  0  0  0  0  0
   -0.4911    0.1547    4.5775 C   0  0  0  0  0  0  0  0  0  0  0  0
   -0.0574    0.5354    5.8006 N   0  0  0  0  0  0  0  0  0  0  0  0
   -0.0682    1.8500    6.0463 C   0  0  0  0  0  0  0  0  0  0  0  0
   -0.5432    2.8008    5.2350 N   0  0  0  0  0  0  0  0  0  0  0  0
   -0.9676    2.4125    4.0341 C   0  0  0  0  0  0  0  0  0  0  0  0
   -0.9496    1.0712    3.6112 C   0  0  0  0  0  0  0  0  0  0  0  0
   -1.3385    0.7659    2.2817 C   0  0  0  0  0  0  0  0  0  0  0  0
   -1.6583    1.7969    1.3916 C   0  0  0  0  0  0  0  0  0  0  0  0
   -1.6560    3.1173    1.8211 C   0  0  0  0  0  0  0  0  0  0  0  0
   -1.3749    3.4037    3.1529 C   0  0  0  0  0  0  0  0  0  0  0  0
   -1.8490    4.1953    1.0012 O   0  0  0  0  0  0  0  0  0  0  0  0
   -1.4907    3.9913   -0.3774 C   0  0  2  0  0  0  0  0  0  0  0  0
   -2.0895    2.7224   -0.9290 C   0  0  0  0  0  0  0  0  0  0  0  0
   -2.6399    2.6244   -2.0160 O   0  0  0  0  0  0  0  0  0  0  0  0
   -1.9160    1.5175   -0.0273 C   0  0  0  0  0  0  0  0  0  0  0  0
   -1.9518    0.3797   -0.4674 O   0  0  0  0  0  0  0  0  0  0  0  0
    0.0034    4.0419   -0.5784 C   0  0  1  0  0  0  0  0  0  0  0  0
    0.7979    3.0683    0.1337 O   0  0  0  0  0  0  0  0  0  0  0  0
    0.4394    4.2647   -1.9236 O   0  0  0  0  0  0  0  0  0  0  0  0
    0.6710    5.2447   -1.0407 C   0  0  0  0  0  0  0  0  0  0  0  0
    0.3556    6.4219   -1.0618 O   0  0  0  0  0  0  0  0  0  0  0  0
    3.5959   -1.2846    1.7486 C   0  0  0  0  0  0  0  0  0  0  0  0
    3.3391   -0.1663    1.3248 O   0  0  0  0  0  0  0  0  0  0  0  0
    4.8714   -1.9760    1.3548 C   0  0  0  0  0  0  0  0  0  0  0  0
    5.3515   -1.7939    0.2465 O   0  0  0  0  0  0  0  0  0  0  0  0
    5.5190   -2.9294    2.3199 C   0  0  0  0  0  0  0  0  0  0  0  0
    6.6919   -3.2461    2.2035 O   0  0  0  0  0  0  0  0  0  0  0  0
  1  2  1  0  0  0  0
  2  3  2  0  0  0  0
  3  4  1  0  0  0  0
  3 50  1  0  0  0  0
  4  5  1  0  0  0  0
  5 46  1  0  0  0  0
  5  6  1  1  0  0  0
  6  7  1  0  0  0  0
  7  8  2  0  0  0  0
  7 12  1  0  0  0  0
  8  9  1  0  0  0  0
  8 25  1  0  0  0  0
  9 10  1  0  0  0  0
 10 11  2  0  0  0  0
 10 21  1  0  0  0  0
 11 12  1  0  0  0  0
 11 13  1  0  0  0  0
 13 14  2  0  0  0  0
 13 19  1  0  0  0  0
 14 15  1  0  0  0  0
 15 16  2  0  0  0  0
 15 17  1  0  0  0  0
 17 18  2  0  0  0  0
 18 19  1  0  0  0  0
 19 20  2  0  0  0  0
 20 21  1  0  0  0  0
 20 22  1  0  0  0  0
 22 23  1  0  0  0  0
 22 24  1  0  0  0  0
 23 24  1  0  0  0  0
 25 26  2  0  0  0  0
 25 30  1  0  0  0  0
 26 27  1  0  0  0  0
 27 28  2  0  0  0  0
 28 29  1  0  0  0  0
 29 30  2  0  0  0  0
 29 34  1  0  0  0  0
 30 31  1  0  0  0  0
 31 32  2  0  0  0  0
 32 33  1  0  0  0  0
 32 39  1  0  0  0  0
 33 34  2  0  0  0  0
 33 35  1  0  0  0  0
 36 35  1  1  0  0  0
 36 37  1  0  0  0  0
 36 41  1  0  0  0  0
 37 38  2  0  0  0  0
 37 39  1  0  0  0  0
 39 40  2  0  0  0  0
 41 42  1  1  0  0  0
 41 43  1  0  0  0  0
 41 44  1  0  0  0  0
 43 44  1  0  0  0  0
 44 45  2  0  0  0  0
 46 47  2  0  0  0  0
 46 48  1  0  0  0  0
 48 49  2  0  0  0  0
 48 50  1  0  0  0  0
 50 51  2  0  0  0  0
M  END
$$$$