
 OpenBabel11212021013D

 54 62  0  0  1  0  0  0  0  0999 V2000
    2.8079   -4.3959   -2.5228 O   0  0  0  0  0  0  0  0  0  0  0  0
    3.0945   -3.0829   -2.2360 C   0  0  0  0  0  0  0  0  0  0  0  0
    2.8476   -2.5385   -1.0391 C   0  0  0  0  0  0  0  0  0  0  0  0
    2.2564   -3.3042   -0.0459 O   0  0  0  0  0  0  0  0  0  0  0  0
    2.6299   -2.9340    1.2758 C   0  0  2  0  0  0  0  0  0  0  0  0
    1.9855   -3.7784    2.2400 O   0  0  0  0  0  0  0  0  0  0  0  0
    2.2528   -5.1348    2.1812 C   0  0  0  0  0  0  0  0  0  0  0  0
    1.3196   -6.0422    2.5453 C   0  0  0  0  0  0  0  0  0  0  0  0
    1.5829   -7.4160    2.5201 O   0  0  0  0  0  0  0  0  0  0  0  0
    2.8252   -7.8889    2.0949 C   0  0  0  0  0  0  0  0  0  0  0  0
    3.8204   -7.0455    1.7664 C   0  0  0  0  0  0  0  0  0  0  0  0
    3.6353   -5.5596    1.7618 C   0  0  0  0  0  0  0  0  0  0  0  0
    5.1807   -7.5373    1.3511 C   0  0  3  0  0  0  0  0  0  0  0  0
    6.1044   -7.0616    2.3209 O   0  0  0  0  0  0  0  0  0  0  0  0
    7.3716   -7.5133    2.2467 C   0  0  0  0  0  0  0  0  0  0  0  0
    8.2956   -6.9395    2.9150 N   0  0  0  0  0  0  0  0  0  0  0  0
    7.6362   -8.5794    1.4754 O   0  0  0  0  0  0  0  0  0  0  0  0
    6.6306   -9.4467    0.9679 C   0  0  3  0  0  0  0  0  0  0  0  0
    5.2571   -9.0192    1.3462 C   0  0  0  0  0  0  0  0  0  0  0  0
    4.2057   -9.8133    1.6485 C   0  0  0  0  0  0  0  0  0  0  0  0
    2.9934   -9.2527    2.0250 O   0  3  0  0  0  0  0  0  0  0  0  0
    4.2325  -11.2970    1.6271 C   0  0  0  0  0  0  0  0  0  0  0  0
    4.0092  -12.0449    2.8307 O   0  0  0  0  0  0  0  0  0  0  0  0
    3.0112  -12.0430    1.7935 O   0  0  0  0  0  0  0  0  0  0  0  0
    6.6598   -9.4153   -0.4438 O   0  0  0  0  0  0  0  0  0  0  0  0
   -0.0469   -5.6463    3.0214 C   0  0  0  0  0  0  0  0  0  0  0  0
   -0.0769   -4.5144    3.7607 N   0  0  0  0  0  0  0  0  0  0  0  0
   -1.2341   -4.0213    4.1693 N   0  3  0  0  0  0  0  0  0  0  0  0
   -1.2305   -2.8661    4.8625 F   0  0  0  0  0  0  0  0  0  0  0  0
   -2.3992   -4.6249    3.9153 C   0  0  0  0  0  0  0  0  0  0  0  0
   -2.4368   -5.8155    3.1947 C   0  0  0  0  0  0  0  0  0  0  0  0
   -1.2292   -6.3618    2.7236 C   0  0  0  0  0  0  0  0  0  0  0  0
   -1.3182   -7.5654    1.9833 C   0  0  0  0  0  0  0  0  0  0  0  0
   -2.5475   -8.1991    1.7451 C   0  0  0  0  0  0  0  0  0  0  0  0
   -2.5711   -9.4889    1.0506 C   0  0  0  0  0  0  0  0  0  0  0  0
   -1.5245  -10.0978    0.8705 O   0  0  0  0  0  0  0  0  0  0  0  0
   -3.9267  -10.0155    0.6263 C   0  0  0  0  0  0  0  0  0  0  0  0
   -4.0367  -11.1421    0.1679 O   0  0  0  0  0  0  0  0  0  0  0  0
   -5.0541   -9.0117    0.7582 C   0  0  1  0  0  0  0  0  0  0  0  0
   -4.9601   -8.1706    1.9248 O   0  0  0  0  0  0  0  0  0  0  0  0
   -3.7317   -7.6332    2.1780 C   0  0  0  0  0  0  0  0  0  0  0  0
   -3.6617   -6.4540    2.9175 C   0  0  0  0  0  0  0  0  0  0  0  0
   -4.7935   -5.8909    3.3658 F   0  0  0  0  0  0  0  0  0  0  0  0
   -5.1634   -8.1699   -0.4740 C   0  0  1  0  0  0  0  0  0  0  0  0
   -3.9952   -7.3669   -0.8157 O   0  0  0  0  0  0  0  0  0  0  0  0
   -5.8390   -8.7692   -1.5695 O   0  0  0  0  0  0  0  0  0  0  0  0
   -6.4420   -7.6955   -1.0196 C   0  0  0  0  0  0  0  0  0  0  0  0
   -6.6851   -6.6117   -1.4944 O   0  0  0  0  0  0  0  0  0  0  0  0
    2.1557   -1.5210    1.5189 C   0  0  0  0  0  0  0  0  0  0  0  0
    1.3268   -1.1728    2.3456 O   0  0  0  0  0  0  0  0  0  0  0  0
    2.8015   -0.5650    0.5536 C   0  0  0  0  0  0  0  0  0  0  0  0
    3.0722    0.5654    0.9150 O   0  0  0  0  0  0  0  0  0  0  0  0
    3.1907   -1.0957   -0.8203 C   0  0  0  0  0  0  0  0  0  0  0  0
    3.7684   -0.4049   -1.6403 O   0  0  0  0  0  0  0  0  0  0  0  0
  1  2  1  0  0  0  0
  2  3  2  0  0  0  0
  3  4  1  0  0  0  0
  3 53  1  0  0  0  0
  4  5  1  0  0  0  0
  5  6  1  1  0  0  0
  5 49  1  0  0  0  0
  6  7  1  0  0  0  0
  7  8  2  0  0  0  0
  7 12  1  0  0  0  0
  8  9  1  0  0  0  0
  8 26  1  0  0  0  0
  9 10  1  0  0  0  0
 10 11  2  0  0  0  0
 10 21  1  0  0  0  0
 11 12  1  0  0  0  0
 11 13  1  0  0  0  0
 13 14  1  0  0  0  0
 13 19  1  0  0  0  0
 14 15  1  0  0  0  0
 15 16  2  0  0  0  0
 15 17  1  0  0  0  0
 17 18  1  0  0  0  0
 18 19  1  0  0  0  0
 18 25  1  0  0  0  0
 19 20  2  0  0  0  0
 20 21  1  0  0  0  0
 20 22  1  0  0  0  0
 22 23  1  0  0  0  0
 22 24  1  0  0  0  0
 23 24  1  0  0  0  0
 26 27  2  0  0  0  0
 26 32  1  0  0  0  0
 27 28  1  0  0  0  0
 28 29  1  0  0  0  0
 28 30  2  0  0  0  0
 30 31  1  0  0  0  0
 31 32  2  0  0  0  0
 31 42  1  0  0  0  0
 32 33  1  0  0  0  0
 33 34  2  0  0  0  0
 34 35  1  0  0  0  0
 34 41  1  0  0  0  0
 35 36  2  0  0  0  0
 35 37  1  0  0  0  0
 37 38  2  0  0  0  0
 39 37  1  6  0  0  0
 39 40  1  0  0  0  0
 39 44  1  0  0  0  0
 40 41  1  0  0  0  0
 41 42  2  0  0  0  0
 42 43  1  0  0  0  0
 44 45  1  6  0  0  0
 44 46  1  0  0  0  0
 44 47  1  0  0  0  0
 46 47  1  0  0  0  0
 47 48  2  0  0  0  0
 49 50  2  0  0  0  0
 49 51  1  0  0  0  0
 51 52  2  0  0  0  0
 51 53  1  0  0  0  0
 53 54  2  0  0  0  0
M  CHG  2  21   1  28   1
M  END
$$$$