
 OpenBabel09222002063D

 51 60  0  0  1  0  0  0  0  0999 V2000
    2.1192   -1.0796    0.3199 O   0  0  0  0  0  0  0  0  0  0  0  0
    3.1018   -1.1198   -0.4130 C   0  0  0  0  0  0  0  0  0  0  0  0
    3.6286   -2.2936   -0.8375 N   0  0  0  0  0  0  0  0  0  0  0  0
    4.6056   -2.4038   -1.8956 C   0  0  0  0  0  0  0  0  0  0  0  0
    5.3678   -1.1428   -2.1042 C   0  0  0  0  0  0  0  0  0  0  0  0
    4.8902    0.0579   -1.5909 C   0  0  0  0  0  0  0  0  0  0  0  0
    3.7290    0.0219   -0.8078 N   0  0  0  0  0  0  0  0  0  0  0  0
    5.5546    1.2600   -1.8596 C   0  0  0  0  0  0  0  0  0  0  0  0
    5.0677    2.5871   -1.3767 C   0  0  0  0  0  0  0  0  0  0  0  0
    5.8671    3.7705   -1.8615 C   0  0  0  0  0  0  0  0  0  0  0  0
    7.0043    3.5614   -2.5648 C   0  0  0  0  0  0  0  0  0  0  0  0
    7.4441    2.2979   -2.9380 O   0  0  0  0  0  0  0  0  0  0  0  0
    6.7039    1.1871   -2.6281 C   0  0  0  0  0  0  0  0  0  0  0  0
    7.1947    0.0399   -3.1406 N   0  0  0  0  0  0  0  0  0  0  0  0
    6.5101   -1.0776   -2.8704 C   0  0  0  0  0  0  0  0  0  0  0  0
    7.0415   -2.1845   -3.4440 O   0  0  0  0  0  0  0  0  0  0  0  0
    7.9207    4.6260   -3.0003 C   0  0  0  0  0  0  0  0  0  0  0  0
    7.4844    5.9038   -3.2917 N   0  0  0  0  0  0  0  0  0  0  0  0
    8.3764    6.9227   -3.6263 C   0  0  0  0  0  0  0  0  0  0  0  0
    9.7765    6.8695   -3.7400 C   0  0  0  0  0  0  0  0  0  0  0  0
   10.1927    5.5763   -3.4658 C   0  0  0  0  0  0  0  0  0  0  0  0
    9.3118    4.4759   -3.1166 C   0  0  0  0  0  0  0  0  0  0  0  0
   10.0855    3.3420   -2.8551 C   0  0  0  0  0  0  0  0  0  0  0  0
   11.0980    4.3272   -2.0784 O   0  0  0  0  0  0  0  0  0  0  0  0
   11.5244    5.1544   -3.4037 C   0  0  0  0  0  0  0  0  0  0  0  0
   12.0950    3.9464   -3.8245 C   0  0  0  0  0  0  0  0  0  0  0  0
   11.2119    2.8573   -3.5342 C   0  0  0  0  0  0  0  0  0  0  0  0
   11.5400    1.5011   -3.8686 C   0  0  0  0  0  0  0  0  0  0  0  0
   10.7731    0.5571   -3.7532 O   0  0  0  0  0  0  0  0  0  0  0  0
   12.9426    1.3058   -4.4404 C   0  0  0  0  0  0  0  0  0  0  0  0
   13.2871    0.2425   -4.9402 O   0  0  0  0  0  0  0  0  0  0  0  0
   13.8741    2.5137   -4.2730 C   0  0  1  0  0  0  0  0  0  0  0  0
   13.3212    3.8357   -4.3842 O   0  0  0  0  0  0  0  0  0  0  0  0
   14.6350    2.3873   -2.9874 C   0  0  1  0  0  0  0  0  0  0  0  0
   13.8448    2.2482   -1.7834 O   0  0  0  0  0  0  0  0  0  0  0  0
   15.8003    1.5644   -3.0634 O   0  0  0  0  0  0  0  0  0  0  0  0
   16.0006    2.8699   -2.7988 C   0  0  0  0  0  0  0  0  0  0  0  0
   16.5232    3.3933   -1.8397 O   0  0  0  0  0  0  0  0  0  0  0  0
    5.4352    5.0597   -1.5594 O   0  0  0  0  0  0  0  0  0  0  0  0
    4.2507    5.2531   -0.8068 C   0  0  1  0  0  0  0  0  0  0  0  0
    4.5436    5.2809    0.5912 O   0  0  0  0  0  0  0  0  0  0  0  0
    3.4010    5.1887    1.4400 C   0  0  1  0  0  0  0  0  0  0  0  0
    3.8595    5.4286    2.8475 C   0  0  0  0  0  0  0  0  0  0  0  0
    4.8237    4.4945    3.3385 O   0  0  0  0  0  0  0  0  0  0  0  0
    3.4548    4.4495    3.8028 O   0  0  0  0  0  0  0  0  0  0  0  0
    2.2548    6.1398    1.1008 C   0  0  0  0  0  0  0  0  0  0  0  0
    1.3616    6.4590    1.8708 O   0  0  0  0  0  0  0  0  0  0  0  0
    2.2591    6.6330   -0.3286 C   0  0  0  0  0  0  0  0  0  0  0  0
    1.2246    6.9725   -0.8784 O   0  0  0  0  0  0  0  0  0  0  0  0
    3.5435    6.5638   -1.1045 C   0  0  0  0  0  0  0  0  0  0  0  0
    3.8955    7.4803   -1.8248 O   0  0  0  0  0  0  0  0  0  0  0  0
  1  2  2  0  0  0  0
  2  3  1  0  0  0  0
  2  7  1  0  0  0  0
  3  4  1  0  0  0  0
  4  5  1  0  0  0  0
  5  6  2  0  0  0  0
  5 15  1  0  0  0  0
  6  7  1  0  0  0  0
  6  8  1  0  0  0  0
  8  9  1  0  0  0  0
  8 13  2  0  0  0  0
  9 10  1  0  0  0  0
 10 11  2  0  0  0  0
 10 39  1  0  0  0  0
 11 12  1  0  0  0  0
 11 17  1  0  0  0  0
 12 13  1  0  0  0  0
 13 14  1  0  0  0  0
 14 15  2  0  0  0  0
 15 16  1  0  0  0  0
 17 18  2  0  0  0  0
 17 22  1  0  0  0  0
 18 19  1  0  0  0  0
 19 20  2  0  0  0  0
 20 21  1  0  0  0  0
 21 22  2  0  0  0  0
 21 25  1  0  0  0  0
 22 23  1  0  0  0  0
 23 24  1  0  0  0  0
 23 27  2  0  0  0  0
 24 25  1  0  0  0  0
 25 26  2  0  0  0  0
 26 27  1  0  0  0  0
 26 33  1  0  0  0  0
 27 28  1  0  0  0  0
 28 29  2  0  0  0  0
 28 30  1  0  0  0  0
 30 31  2  0  0  0  0
 32 30  1  1  0  0  0
 32 33  1  0  0  0  0
 32 34  1  0  0  0  0
 34 35  1  1  0  0  0
 34 36  1  0  0  0  0
 34 37  1  0  0  0  0
 36 37  1  0  0  0  0
 37 38  2  0  0  0  0
 40 39  1  6  0  0  0
 40 41  1  0  0  0  0
 40 50  1  0  0  0  0
 41 42  1  0  0  0  0
 42 46  1  0  0  0  0
 42 43  1  1  0  0  0
 43 44  1  0  0  0  0
 43 45  1  0  0  0  0
 44 45  1  0  0  0  0
 46 47  2  0  0  0  0
 46 48  1  0  0  0  0
 48 49  2  0  0  0  0
 48 50  1  0  0  0  0
 50 51  2  0  0  0  0
M  END
$$$$