
 OpenBabel09202022083D

 45 51  0  0  1  0  0  0  0  0999 V2000
    1.6862    1.3306    4.0507 O   0  0  0  0  0  0  0  0  0  0  0  0
    1.8741    0.1849    3.2210 C   0  0  0  0  0  0  0  0  0  0  0  0
    3.1962    0.2721    2.4452 C   0  0  2  0  0  0  0  0  0  0  0  0
    4.3287    0.3236    3.3133 O   0  0  0  0  0  0  0  0  0  0  0  0
    4.6747    1.5666    3.7655 C   0  0  0  0  0  0  0  0  0  0  0  0
    5.4724    1.6136    4.9074 C   0  0  0  0  0  0  0  0  0  0  0  0
    5.8229    2.8427    5.5039 C   0  0  0  0  0  0  0  0  0  0  0  0
    6.6165    2.8532    6.6511 C   0  0  0  0  0  0  0  0  0  0  0  0
    6.9080    4.0623    7.2482 C   0  0  0  0  0  0  0  0  0  0  0  0
    6.4518    5.2472    6.8023 N   0  0  0  0  0  0  0  0  0  0  0  0
    5.7041    5.2677    5.6635 C   0  0  0  0  0  0  0  0  0  0  0  0
    5.3720    4.0700    4.9544 C   0  0  0  0  0  0  0  0  0  0  0  0
    4.6415    3.9859    3.7398 C   0  0  0  0  0  0  0  0  0  0  0  0
    4.2963    2.7561    3.1645 C   0  0  0  0  0  0  0  0  0  0  0  0
    3.5324    2.7285    1.9096 C   0  0  0  0  0  0  0  0  0  0  0  0
    3.2791    3.7382    1.2743 O   0  0  0  0  0  0  0  0  0  0  0  0
    3.0851    1.3725    1.4193 C   0  0  0  0  0  0  0  0  0  0  0  0
    2.6173    1.2205    0.3007 O   0  0  0  0  0  0  0  0  0  0  0  0
    5.2222    6.6316    5.2647 C   0  0  0  0  0  0  0  0  0  0  0  0
    5.8908    7.7841    5.5034 C   0  0  0  0  0  0  0  0  0  0  0  0
    7.1509    7.7889    6.0810 O   0  0  0  0  0  0  0  0  0  0  0  0
    7.5076    8.9134    6.8831 C   0  0  1  0  0  0  0  0  0  0  0  0
    6.6204    9.1001    7.9904 O   0  0  0  0  0  0  0  0  0  0  0  0
    6.9139   10.3023    8.7152 C   0  0  1  0  0  0  0  0  0  0  0  0
    5.8597   10.4950    9.8038 C   0  0  0  0  0  0  0  0  0  0  0  0
    4.5649   10.5947    9.2125 O   0  0  0  0  0  0  0  0  0  0  0  0
    8.2842   10.2336    9.3538 C   0  0  0  0  0  0  0  0  0  0  0  0
    8.7049   11.0156   10.1903 O   0  0  0  0  0  0  0  0  0  0  0  0
    9.1690    9.1513    8.7773 C   0  0  0  0  0  0  0  0  0  0  0  0
   10.0560    8.6589    9.4534 O   0  0  0  0  0  0  0  0  0  0  0  0
    8.9420    8.7059    7.3544 C   0  0  0  0  0  0  0  0  0  0  0  0
    9.8794    8.3389    6.6613 O   0  0  0  0  0  0  0  0  0  0  0  0
    5.3287    9.1034    5.0396 C   0  0  0  0  0  0  0  0  0  0  0  0
    4.1438    8.9694    4.1383 C   0  0  0  0  0  0  0  0  0  0  0  0
    3.5264    7.7376    3.9918 C   0  0  0  0  0  0  0  0  0  0  0  0
    3.9633    6.6243    4.6699 O   0  0  0  0  0  0  0  0  0  0  0  0
    2.4612    7.5227    3.1957 N   0  0  0  0  0  0  0  0  0  0  0  0
    2.0085    8.5899    2.5283 C   0  0  0  0  0  0  0  0  0  0  0  0
    0.9511    8.3127    1.7226 O   0  0  0  0  0  0  0  0  0  0  0  0
    2.5355    9.8742    2.6225 C   0  0  0  0  0  0  0  0  0  0  0  0
    3.6317   10.0717    3.4575 C   0  0  0  0  0  0  0  0  0  0  0  0
    4.1864   11.2889    3.6092 N   0  0  0  0  0  0  0  0  0  0  0  0
    3.6387   12.3066    2.9212 C   0  0  0  0  0  0  0  0  0  0  0  0
    2.5950   12.2253    2.0882 N   0  0  0  0  0  0  0  0  0  0  0  0
    2.0609   10.9965    1.9528 C   0  0  0  0  0  0  0  0  0  0  0  0
  1  2  1  0  0  0  0
  3  4  1  0  0  0  0
  3 17  1  0  0  0  0
  3  2  1  1  0  0  0
  4  5  1  0  0  0  0
  5  6  2  0  0  0  0
  5 14  1  0  0  0  0
  6  7  1  0  0  0  0
  7  8  2  0  0  0  0
  7 12  1  0  0  0  0
  8  9  1  0  0  0  0
  9 10  2  0  0  0  0
 10 11  1  0  0  0  0
 11 12  2  0  0  0  0
 11 19  1  0  0  0  0
 12 13  1  0  0  0  0
 13 14  2  0  0  0  0
 14 15  1  0  0  0  0
 15 16  2  0  0  0  0
 15 17  1  0  0  0  0
 17 18  2  0  0  0  0
 19 20  2  0  0  0  0
 19 36  1  0  0  0  0
 20 21  1  0  0  0  0
 20 33  1  0  0  0  0
 22 21  1  1  0  0  0
 22 23  1  0  0  0  0
 22 31  1  0  0  0  0
 23 24  1  0  0  0  0
 24 27  1  0  0  0  0
 24 25  1  1  0  0  0
 25 26  1  0  0  0  0
 27 28  2  0  0  0  0
 27 29  1  0  0  0  0
 29 30  2  0  0  0  0
 29 31  1  0  0  0  0
 31 32  2  0  0  0  0
 33 34  1  0  0  0  0
 34 35  2  0  0  0  0
 34 41  1  0  0  0  0
 35 36  1  0  0  0  0
 35 37  1  0  0  0  0
 37 38  2  0  0  0  0
 38 39  1  0  0  0  0
 38 40  1  0  0  0  0
 40 41  2  0  0  0  0
 40 45  1  0  0  0  0
 41 42  1  0  0  0  0
 42 43  2  0  0  0  0
 43 44  1  0  0  0  0
 44 45  2  0  0  0  0
M  END
$$$$