
 OpenBabel10272000503D

 51 59  0  0  1  0  0  0  0  0999 V2000
   -0.2617    3.0008   -4.7797 O   0  0  0  0  0  0  0  0  0  0  0  0
   -0.2564    2.6904   -3.4441 C   0  0  0  0  0  0  0  0  0  0  0  0
    0.2881    1.5680   -2.9606 C   0  0  0  0  0  0  0  0  0  0  0  0
    0.8341    0.6057   -3.7889 O   0  0  0  0  0  0  0  0  0  0  0  0
    2.1402    0.2059   -3.3667 C   0  0  2  0  0  0  0  0  0  0  0  0
    2.7318   -0.6937   -4.3184 O   0  0  0  0  0  0  0  0  0  0  0  0
    2.8674   -0.2130   -5.6179 C   0  0  0  0  0  0  0  0  0  0  0  0
    2.8133   -1.0510   -6.6788 C   0  0  0  0  0  0  0  0  0  0  0  0
    2.9229   -0.5846   -7.9975 O   0  0  0  0  0  0  0  0  0  0  0  0
    2.9138    0.7796   -8.2403 C   0  0  0  0  0  0  0  0  0  0  0  0
    3.0076    1.6771   -7.2476 C   0  0  0  0  0  0  0  0  0  0  0  0
    3.1248    1.2608   -5.8241 C   0  0  0  0  0  0  0  0  0  0  0  0
    2.8859    3.1462   -7.5322 C   0  0  3  0  0  0  0  0  0  0  0  0
    3.9718    3.8352   -6.9249 O   0  0  0  0  0  0  0  0  0  0  0  0
    3.8504    5.1885   -6.9498 C   0  0  0  0  0  0  0  0  0  0  0  0
    4.3499    5.9054   -6.0958 O   0  0  0  0  0  0  0  0  0  0  0  0
    3.0834    5.6769   -7.9635 O   0  0  0  0  0  0  0  0  0  0  0  0
    3.0287    4.9529   -9.2052 C   0  0  0  0  0  0  0  0  0  0  0  0
    2.9009    3.4896   -8.9833 C   0  0  0  0  0  0  0  0  0  0  0  0
    2.8417    2.5326   -9.9372 C   0  0  0  0  0  0  0  0  0  0  0  0
    2.7790    1.2028   -9.5411 N   0  0  0  0  0  0  0  0  0  0  0  0
    2.8495    2.8018  -11.3938 C   0  0  0  0  0  0  0  0  0  0  0  0
    4.0743    2.8875  -12.1384 O   0  0  0  0  0  0  0  0  0  0  0  0
    3.1707    1.7870  -12.3608 O   0  0  0  0  0  0  0  0  0  0  0  0
    2.6401   -2.5558   -6.5684 C   0  0  3  0  0  0  0  0  0  0  0  0
    3.7947   -3.1542   -7.1681 O   0  0  0  0  0  0  0  0  0  0  0  0
    3.6474   -4.5640   -7.2145 C   0  0  0  0  0  0  0  0  0  0  0  0
    2.6148   -4.9994   -8.0973 O   0  0  0  0  0  0  0  0  0  0  0  0
    1.4544   -4.2911   -7.9511 C   0  0  0  0  0  0  0  0  0  0  0  0
    1.3853   -3.0958   -7.2271 C   0  0  0  0  0  0  0  0  0  0  0  0
    0.1365   -2.4709   -7.0932 C   0  0  0  0  0  0  0  0  0  0  0  0
   -0.9967   -3.0140   -7.7180 C   0  0  0  0  0  0  0  0  0  0  0  0
   -0.9126   -4.1905   -8.4560 C   0  0  0  0  0  0  0  0  0  0  0  0
    0.3231   -4.8237   -8.5776 C   0  0  0  0  0  0  0  0  0  0  0  0
   -1.9585   -4.7965   -9.0910 O   0  0  0  0  0  0  0  0  0  0  0  0
   -3.2796   -4.3398   -8.7807 C   0  0  2  0  0  0  0  0  0  0  0  0
   -3.4086   -2.8740   -8.4549 C   0  0  0  0  0  0  0  0  0  0  0  0
   -4.3555   -2.1676   -8.7717 O   0  0  0  0  0  0  0  0  0  0  0  0
   -2.2868   -2.3280   -7.6105 C   0  0  0  0  0  0  0  0  0  0  0  0
   -2.4616   -1.3688   -6.8755 O   0  0  0  0  0  0  0  0  0  0  0  0
   -3.8819   -5.1867   -7.6955 C   0  0  1  0  0  0  0  0  0  0  0  0
   -3.1837   -5.2214   -6.4315 O   0  0  0  0  0  0  0  0  0  0  0  0
   -5.3043   -5.1179   -7.5596 O   0  0  0  0  0  0  0  0  0  0  0  0
   -4.7942   -6.2724   -8.0102 C   0  0  0  0  0  0  0  0  0  0  0  0
   -5.0327   -6.8855   -9.0366 O   0  0  0  0  0  0  0  0  0  0  0  0
    2.1079   -0.4562   -1.9921 C   0  0  0  0  0  0  0  0  0  0  0  0
    2.9398   -1.2393   -1.5559 O   0  0  0  0  0  0  0  0  0  0  0  0
    0.9815    0.0463   -1.1159 C   0  0  0  0  0  0  0  0  0  0  0  0
    0.6125   -0.5876   -0.1407 O   0  0  0  0  0  0  0  0  0  0  0  0
    0.2999    1.3443   -1.4924 C   0  0  0  0  0  0  0  0  0  0  0  0
   -0.1230    2.1280   -0.6617 O   0  0  0  0  0  0  0  0  0  0  0  0
  1  2  1  0  0  0  0
  2  3  2  0  0  0  0
  3  4  1  0  0  0  0
  3 50  1  0  0  0  0
  4  5  1  0  0  0  0
  5  6  1  6  0  0  0
  5 46  1  0  0  0  0
  6  7  1  0  0  0  0
  7  8  2  0  0  0  0
  7 12  1  0  0  0  0
  8  9  1  0  0  0  0
  8 25  1  0  0  0  0
  9 10  1  0  0  0  0
 10 11  2  0  0  0  0
 10 21  1  0  0  0  0
 11 12  1  0  0  0  0
 11 13  1  0  0  0  0
 13 14  1  0  0  0  0
 13 19  1  0  0  0  0
 14 15  1  0  0  0  0
 15 16  2  0  0  0  0
 15 17  1  0  0  0  0
 17 18  1  0  0  0  0
 18 19  1  0  0  0  0
 19 20  2  0  0  0  0
 20 21  1  0  0  0  0
 20 22  1  0  0  0  0
 22 23  1  0  0  0  0
 22 24  1  0  0  0  0
 23 24  1  0  0  0  0
 25 26  1  0  0  0  0
 25 30  1  0  0  0  0
 26 27  1  0  0  0  0
 27 28  1  0  0  0  0
 28 29  1  0  0  0  0
 29 30  2  0  0  0  0
 29 34  1  0  0  0  0
 30 31  1  0  0  0  0
 31 32  2  0  0  0  0
 32 33  1  0  0  0  0
 32 39  1  0  0  0  0
 33 34  2  0  0  0  0
 33 35  1  0  0  0  0
 36 35  1  1  0  0  0
 36 37  1  0  0  0  0
 36 41  1  0  0  0  0
 37 38  2  0  0  0  0
 37 39  1  0  0  0  0
 39 40  2  0  0  0  0
 41 42  1  1  0  0  0
 41 43  1  0  0  0  0
 41 44  1  0  0  0  0
 43 44  1  0  0  0  0
 44 45  2  0  0  0  0
 46 47  2  0  0  0  0
 46 48  1  0  0  0  0
 48 49  2  0  0  0  0
 48 50  1  0  0  0  0
 50 51  2  0  0  0  0
M  END
$$$$