
 OpenBabel11212014223D

 52 60  0  0  1  0  0  0  0  0999 V2000
    6.8050   -0.3982    5.7225 O   0  0  0  0  0  0  0  0  0  0  0  0
    6.5047    0.7936    5.1112 C   0  0  0  0  0  0  0  0  0  0  0  0
    5.3705    1.0004    4.4321 C   0  0  0  0  0  0  0  0  0  0  0  0
    4.4361   -0.0062    4.2684 O   0  0  0  0  0  0  0  0  0  0  0  0
    3.0941    0.4655    4.4012 C   0  0  2  0  0  0  0  0  0  0  0  0
    2.1665   -0.6311    4.3929 O   0  0  0  0  0  0  0  0  0  0  0  0
    2.3527   -1.6164    5.3533 C   0  0  0  0  0  0  0  0  0  0  0  0
    2.0195   -2.8981    5.1000 C   0  0  0  0  0  0  0  0  0  0  0  0
    2.1637   -3.9204    6.0323 O   0  0  0  0  0  0  0  0  0  0  0  0
    2.6938   -3.6388    7.2843 C   0  0  0  0  0  0  0  0  0  0  0  0
    3.0240   -2.3860    7.6480 C   0  0  0  0  0  0  0  0  0  0  0  0
    2.8605   -1.2187    6.7167 C   0  0  0  0  0  0  0  0  0  0  0  0
    3.6053   -2.0766    8.9979 C   0  0  3  0  0  0  0  0  0  0  0  0
    2.6927   -1.2389    9.6835 O   0  0  0  0  0  0  0  0  0  0  0  0
    3.0705   -0.8178   10.9212 C   0  0  0  0  0  0  0  0  0  0  0  0
    2.5913    0.1780   11.4366 O   0  0  0  0  0  0  0  0  0  0  0  0
    4.0258   -1.5715   11.5240 O   0  0  0  0  0  0  0  0  0  0  0  0
    4.2627   -2.9486   11.1895 C   0  0  0  0  0  0  0  0  0  0  0  0
    3.7601   -3.2974    9.8293 C   0  0  0  0  0  0  0  0  0  0  0  0
    3.4084   -4.5304    9.3982 C   0  0  0  0  0  0  0  0  0  0  0  0
    2.8676   -4.7020    8.1342 O   0  3  0  0  0  0  0  0  0  0  0  0
    3.5365   -5.7565   10.2197 C   0  0  0  0  0  0  0  0  0  0  0  0
    2.4427   -6.2338   11.0120 O   0  0  0  0  0  0  0  0  0  0  0  0
    2.8539   -6.9641    9.8399 O   0  0  0  0  0  0  0  0  0  0  0  0
    1.4379   -3.3453    3.8220 C   0  0  0  0  0  0  0  0  0  0  0  0
    0.0598   -3.2995    3.6806 C   0  0  0  0  0  0  0  0  0  0  0  0
   -0.5665   -3.7423    2.5815 N   0  0  0  0  0  0  0  0  0  0  0  0
    0.1711   -4.2296    1.5381 N   0  0  0  0  0  0  0  0  0  0  0  0
    1.5123   -4.2709    1.5848 C   0  0  0  0  0  0  0  0  0  0  0  0
    2.2021   -3.8414    2.7392 C   0  0  0  0  0  0  0  0  0  0  0  0
    3.6124   -3.9311    2.7557 C   0  0  0  0  0  0  0  0  0  0  0  0
    4.3154   -4.4179    1.6470 C   0  0  0  0  0  0  0  0  0  0  0  0
    5.7754   -4.5216    1.6956 C   0  0  0  0  0  0  0  0  0  0  0  0
    6.4049   -4.2158    2.6961 O   0  0  0  0  0  0  0  0  0  0  0  0
    6.4513   -5.0702    0.4634 C   0  0  0  0  0  0  0  0  0  0  0  0
    7.5466   -5.6059    0.5473 O   0  0  0  0  0  0  0  0  0  0  0  0
    5.6533   -4.9019   -0.8080 C   0  0  1  0  0  0  0  0  0  0  0  0
    4.2606   -5.2214   -0.6494 O   0  0  0  0  0  0  0  0  0  0  0  0
    3.6441   -4.8054    0.4996 C   0  0  0  0  0  0  0  0  0  0  0  0
    2.2483   -4.7455    0.4954 C   0  0  0  0  0  0  0  0  0  0  0  0
    1.5973   -5.1504   -0.6086 F   0  0  0  0  0  0  0  0  0  0  0  0
    5.8969   -3.5581   -1.4479 C   0  0  1  0  0  0  0  0  0  0  0  0
    7.2494   -3.2863   -1.8595 O   0  0  0  0  0  0  0  0  0  0  0  0
    4.8833   -3.0979   -2.3600 O   0  0  0  0  0  0  0  0  0  0  0  0
    5.0587   -2.3938   -1.2306 C   0  0  0  0  0  0  0  0  0  0  0  0
    4.3144   -2.0919   -0.3245 O   0  0  0  0  0  0  0  0  0  0  0  0
    2.7442    1.4557    3.2964 C   0  0  0  0  0  0  0  0  0  0  0  0
    1.6461    1.5827    2.7773 O   0  0  0  0  0  0  0  0  0  0  0  0
    3.8888    2.3897    2.9665 C   0  0  0  0  0  0  0  0  0  0  0  0
    3.8250    3.1576    2.0218 O   0  0  0  0  0  0  0  0  0  0  0  0
    5.1314    2.3416    3.8321 C   0  0  0  0  0  0  0  0  0  0  0  0
    5.8109    3.3267    4.0582 O   0  0  0  0  0  0  0  0  0  0  0  0
  1  2  1  0  0  0  0
  2  3  2  0  0  0  0
  3  4  1  0  0  0  0
  3 51  1  0  0  0  0
  4  5  1  0  0  0  0
  5  6  1  6  0  0  0
  5 47  1  0  0  0  0
  6  7  1  0  0  0  0
  7  8  2  0  0  0  0
  7 12  1  0  0  0  0
  8  9  1  0  0  0  0
  8 25  1  0  0  0  0
  9 10  1  0  0  0  0
 10 11  2  0  0  0  0
 10 21  1  0  0  0  0
 11 12  1  0  0  0  0
 11 13  1  0  0  0  0
 13 14  1  0  0  0  0
 13 19  1  0  0  0  0
 14 15  1  0  0  0  0
 15 16  2  0  0  0  0
 15 17  1  0  0  0  0
 17 18  1  0  0  0  0
 18 19  1  0  0  0  0
 19 20  2  0  0  0  0
 20 21  1  0  0  0  0
 20 22  1  0  0  0  0
 22 23  1  0  0  0  0
 22 24  1  0  0  0  0
 23 24  1  0  0  0  0
 25 26  2  0  0  0  0
 25 30  1  0  0  0  0
 26 27  1  0  0  0  0
 27 28  2  0  0  0  0
 28 29  1  0  0  0  0
 29 30  2  0  0  0  0
 29 40  1  0  0  0  0
 30 31  1  0  0  0  0
 31 32  2  0  0  0  0
 32 33  1  0  0  0  0
 32 39  1  0  0  0  0
 33 34  2  0  0  0  0
 33 35  1  0  0  0  0
 35 36  2  0  0  0  0
 37 35  1  1  0  0  0
 37 38  1  0  0  0  0
 37 42  1  0  0  0  0
 38 39  1  0  0  0  0
 39 40  2  0  0  0  0
 40 41  1  0  0  0  0
 42 43  1  6  0  0  0
 42 44  1  0  0  0  0
 42 45  1  0  0  0  0
 44 45  1  0  0  0  0
 45 46  2  0  0  0  0
 47 48  2  0  0  0  0
 47 49  1  0  0  0  0
 49 50  2  0  0  0  0
 49 51  1  0  0  0  0
 51 52  2  0  0  0  0
M  CHG  1  21   1
M  END
$$$$