
 OpenBabel09222010383D

 51 59  0  0  1  0  0  0  0  0999 V2000
    0.6455   -4.0863    4.3671 O   0  0  0  0  0  0  0  0  0  0  0  0
    1.2770   -3.8682    3.1690 C   0  0  0  0  0  0  0  0  0  0  0  0
    1.5478   -2.6403    2.7098 C   0  0  0  0  0  0  0  0  0  0  0  0
    1.1672   -1.5168    3.4186 O   0  0  0  0  0  0  0  0  0  0  0  0
    2.1091   -0.4344    3.3628 C   0  0  2  0  0  0  0  0  0  0  0  0
    1.7978    0.5857    4.3195 O   0  0  0  0  0  0  0  0  0  0  0  0
    1.8938    0.2386    5.6685 C   0  0  0  0  0  0  0  0  0  0  0  0
    2.2147    1.1478    6.6154 C   0  0  0  0  0  0  0  0  0  0  0  0
    2.2902    0.8596    7.9749 O   0  0  0  0  0  0  0  0  0  0  0  0
    2.2964   -0.4580    8.3705 C   0  0  0  0  0  0  0  0  0  0  0  0
    2.0040   -1.4761    7.4959 C   0  0  0  0  0  0  0  0  0  0  0  0
    1.6044   -1.1800    6.0917 C   0  0  0  0  0  0  0  0  0  0  0  0
    2.1137   -2.7728    7.9806 C   0  0  0  0  0  0  0  0  0  0  0  0
    1.7998   -3.8321    7.1217 O   0  0  0  0  0  0  0  0  0  0  0  0
    2.1611   -5.1501    7.3880 C   0  0  0  0  0  0  0  0  0  0  0  0
    1.9955   -6.0337    6.5550 O   0  0  0  0  0  0  0  0  0  0  0  0
    2.7357   -5.3816    8.5965 O   0  0  0  0  0  0  0  0  0  0  0  0
    2.5918   -4.4622    9.6904 C   0  0  0  0  0  0  0  0  0  0  0  0
    2.5151   -3.0389    9.2717 C   0  0  0  0  0  0  0  0  0  0  0  0
    2.7571   -1.9523   10.1191 C   0  0  0  0  0  0  0  0  0  0  0  0
    2.6344   -0.6749    9.6583 N   0  0  0  0  0  0  0  0  0  0  0  0
    3.1486   -2.1431   11.5650 C   0  0  0  0  0  0  0  0  0  0  0  0
    4.5482   -2.2777   11.8527 O   0  0  0  0  0  0  0  0  0  0  0  0
    3.8441   -1.0766   12.2286 O   0  0  0  0  0  0  0  0  0  0  0  0
    2.6278    2.5284    6.3128 C   0  0  0  0  0  0  0  0  0  0  0  0
    3.9734    2.6448    6.1427 N   0  0  0  0  0  0  0  0  0  0  0  0
    4.4698    3.8749    5.9217 C   0  0  0  0  0  0  0  0  0  0  0  0
    3.6908    5.0116    5.8376 C   0  0  0  0  0  0  0  0  0  0  0  0
    2.3082    4.8938    5.9904 C   0  0  0  0  0  0  0  0  0  0  0  0
    1.7354    3.6257    6.2556 C   0  0  0  0  0  0  0  0  0  0  0  0
    0.3329    3.5577    6.4418 C   0  0  0  0  0  0  0  0  0  0  0  0
   -0.4627    4.7029    6.2995 C   0  0  0  0  0  0  0  0  0  0  0  0
    0.1100    5.9276    5.9742 C   0  0  0  0  0  0  0  0  0  0  0  0
    1.4930    6.0300    5.8655 C   0  0  0  0  0  0  0  0  0  0  0  0
   -0.5964    7.0718    5.7249 O   0  0  0  0  0  0  0  0  0  0  0  0
   -1.9592    6.8815    5.3140 C   0  0  2  0  0  0  0  0  0  0  0  0
   -2.6942    5.8964    6.1836 C   0  0  0  0  0  0  0  0  0  0  0  0
   -3.8265    6.0583    6.6162 O   0  0  0  0  0  0  0  0  0  0  0  0
   -1.9209    4.6274    6.4644 C   0  0  0  0  0  0  0  0  0  0  0  0
   -2.4917    3.6000    6.7932 O   0  0  0  0  0  0  0  0  0  0  0  0
   -2.0438    6.5295    3.8518 C   0  0  1  0  0  0  0  0  0  0  0  0
   -1.3683    5.3310    3.4142 O   0  0  0  0  0  0  0  0  0  0  0  0
   -3.3070    6.7428    3.2193 O   0  0  0  0  0  0  0  0  0  0  0  0
   -2.3049    7.5610    2.8609 C   0  0  0  0  0  0  0  0  0  0  0  0
   -2.2340    8.7759    2.8939 O   0  0  0  0  0  0  0  0  0  0  0  0
    2.0297    0.0610    1.9275 C   0  0  0  0  0  0  0  0  0  0  0  0
    1.7325    1.1841    1.5507 O   0  0  0  0  0  0  0  0  0  0  0  0
    2.3379   -1.0444    0.9376 C   0  0  0  0  0  0  0  0  0  0  0  0
    2.7089   -0.7776   -0.1943 O   0  0  0  0  0  0  0  0  0  0  0  0
    2.2080   -2.4917    1.3858 C   0  0  0  0  0  0  0  0  0  0  0  0
    2.6320   -3.4222    0.7224 O   0  0  0  0  0  0  0  0  0  0  0  0
  1  2  1  0  0  0  0
  2  3  2  0  0  0  0
  3  4  1  0  0  0  0
  3 50  1  0  0  0  0
  4  5  1  0  0  0  0
  5  6  1  1  0  0  0
  5 46  1  0  0  0  0
  6  7  1  0  0  0  0
  7  8  2  0  0  0  0
  7 12  1  0  0  0  0
  8  9  1  0  0  0  0
  8 25  1  0  0  0  0
  9 10  1  0  0  0  0
 10 11  2  0  0  0  0
 10 21  1  0  0  0  0
 11 12  1  0  0  0  0
 11 13  1  0  0  0  0
 13 14  1  0  0  0  0
 13 19  2  0  0  0  0
 14 15  1  0  0  0  0
 15 16  2  0  0  0  0
 15 17  1  0  0  0  0
 17 18  1  0  0  0  0
 18 19  1  0  0  0  0
 19 20  1  0  0  0  0
 20 21  2  0  0  0  0
 20 22  1  0  0  0  0
 22 23  1  0  0  0  0
 22 24  1  0  0  0  0
 23 24  1  0  0  0  0
 25 26  2  0  0  0  0
 25 30  1  0  0  0  0
 26 27  1  0  0  0  0
 27 28  2  0  0  0  0
 28 29  1  0  0  0  0
 29 30  2  0  0  0  0
 29 34  1  0  0  0  0
 30 31  1  0  0  0  0
 31 32  2  0  0  0  0
 32 33  1  0  0  0  0
 32 39  1  0  0  0  0
 33 34  2  0  0  0  0
 33 35  1  0  0  0  0
 36 35  1  1  0  0  0
 36 37  1  0  0  0  0
 36 41  1  0  0  0  0
 37 38  2  0  0  0  0
 37 39  1  0  0  0  0
 39 40  2  0  0  0  0
 41 42  1  6  0  0  0
 41 43  1  0  0  0  0
 41 44  1  0  0  0  0
 43 44  1  0  0  0  0
 44 45  2  0  0  0  0
 46 47  2  0  0  0  0
 46 48  1  0  0  0  0
 48 49  2  0  0  0  0
 48 50  1  0  0  0  0
 50 51  2  0  0  0  0
M  END
$$$$