
 OpenBabel11152013593D

 53 61  0  0  1  0  0  0  0  0999 V2000
    0.2599   10.4947   10.6787 O   0  0  0  0  0  0  0  0  0  0  0  0
    0.8708   11.6806   10.9926 C   0  0  0  0  0  0  0  0  0  0  0  0
    1.8567   11.7795   11.8950 C   0  0  0  0  0  0  0  0  0  0  0  0
    2.2793   10.6901   12.6382 O   0  0  0  0  0  0  0  0  0  0  0  0
    3.6916   10.5771   12.7327 C   0  0  2  0  0  0  0  0  0  0  0  0
    4.0614    9.4362   13.5537 O   0  0  0  0  0  0  0  0  0  0  0  0
    4.2174    8.2019   12.9319 C   0  0  0  0  0  0  0  0  0  0  0  0
    4.4917    7.0727   13.6278 C   0  0  0  0  0  0  0  0  0  0  0  0
    4.6074    5.8166   13.0224 O   0  0  0  0  0  0  0  0  0  0  0  0
    4.3822    5.6934   11.6587 C   0  0  0  0  0  0  0  0  0  0  0  0
    4.1872    6.7645   10.8768 C   0  0  0  0  0  0  0  0  0  0  0  0
    4.1227    8.1393   11.4275 C   0  0  0  0  0  0  0  0  0  0  0  0
    3.9470    6.6246    9.3966 C   0  0  3  0  0  0  0  0  0  0  0  0
    4.9971    7.3102    8.7211 O   0  0  0  0  0  0  0  0  0  0  0  0
    5.2144    7.1142    7.3950 C   0  0  0  0  0  0  0  0  0  0  0  0
    5.9945    7.8257    6.7761 O   0  0  0  0  0  0  0  0  0  0  0  0
    4.5547    6.0952    6.7924 O   0  0  0  0  0  0  0  0  0  0  0  0
    3.6798    5.2003    7.4689 C   0  0  3  0  0  0  0  0  0  0  0  0
    3.9096    5.2198    8.9270 C   0  0  0  0  0  0  0  0  0  0  0  0
    4.0803    4.1773    9.7699 C   0  0  0  0  0  0  0  0  0  0  0  0
    4.3341    4.4343   11.1141 N   0  0  0  0  0  0  0  0  0  0  0  0
    3.9969    2.7566    9.3692 C   0  0  0  0  0  0  0  0  0  0  0  0
    4.8868    2.1837    8.3995 O   0  0  0  0  0  0  0  0  0  0  0  0
    4.9803    1.7953    9.7838 O   0  0  0  0  0  0  0  0  0  0  0  0
    2.3410    5.6053    7.2353 O   0  0  0  0  0  0  0  0  0  0  0  0
    4.7351    7.0097   15.0840 C   0  0  0  0  0  0  0  0  0  0  0  0
    6.0231    7.1864   15.4407 N   0  0  0  0  0  0  0  0  0  0  0  0
    6.3547    7.0087   16.7116 N   0  3  0  0  0  0  0  0  0  0  0  0
    7.7588    7.1418   17.1177 C   0  0  0  0  0  0  0  0  0  0  0  0
    5.4808    6.6593   17.6412 N   0  0  0  0  0  0  0  0  0  0  0  0
    4.2119    6.4599   17.3042 C   0  0  0  0  0  0  0  0  0  0  0  0
    3.7533    6.6267   15.9981 C   0  0  0  0  0  0  0  0  0  0  0  0
    2.3918    6.3643   15.7001 C   0  0  0  0  0  0  0  0  0  0  0  0
    1.5236    5.9188   16.7025 C   0  0  0  0  0  0  0  0  0  0  0  0
    1.9820    5.7613   18.0028 C   0  0  0  0  0  0  0  0  0  0  0  0
    3.3215    6.0349   18.2875 C   0  0  0  0  0  0  0  0  0  0  0  0
    1.2205    5.3384   19.0572 O   0  0  0  0  0  0  0  0  0  0  0  0
   -0.2066    5.3646   18.8794 C   0  0  2  0  0  0  0  0  0  0  0  0
   -0.6477    4.9269   17.5043 C   0  0  0  0  0  0  0  0  0  0  0  0
   -1.5147    4.0989   17.2733 O   0  0  0  0  0  0  0  0  0  0  0  0
    0.1306    5.5800   16.3875 C   0  0  0  0  0  0  0  0  0  0  0  0
   -0.3537    5.7853   15.2887 O   0  0  0  0  0  0  0  0  0  0  0  0
   -0.7455    6.7156   19.2180 C   0  0  1  0  0  0  0  0  0  0  0  0
   -0.2199    7.8340   18.4577 O   0  0  0  0  0  0  0  0  0  0  0  0
   -2.1444    6.7548   19.4937 O   0  0  0  0  0  0  0  0  0  0  0  0
   -1.3235    7.0565   20.5221 C   0  0  0  0  0  0  0  0  0  0  0  0
   -1.2151    8.0740   21.1591 O   0  0  0  0  0  0  0  0  0  0  0  0
    4.3836   11.7973   13.3115 C   0  0  0  0  0  0  0  0  0  0  0  0
    5.4248   11.7644   13.9558 O   0  0  0  0  0  0  0  0  0  0  0  0
    3.7481   13.1062   12.9082 C   0  0  0  0  0  0  0  0  0  0  0  0
    4.2931   14.1563   13.2129 O   0  0  0  0  0  0  0  0  0  0  0  0
    2.4694   13.1206   12.0978 C   0  0  0  0  0  0  0  0  0  0  0  0
    2.0177   14.1535   11.6319 O   0  0  0  0  0  0  0  0  0  0  0  0
  1  2  1  0  0  0  0
  2  3  2  0  0  0  0
  3  4  1  0  0  0  0
  3 52  1  0  0  0  0
  4  5  1  0  0  0  0
  5  6  1  1  0  0  0
  5 48  1  0  0  0  0
  6  7  1  0  0  0  0
  7  8  2  0  0  0  0
  7 12  1  0  0  0  0
  8  9  1  0  0  0  0
  8 26  1  0  0  0  0
  9 10  1  0  0  0  0
 10 11  2  0  0  0  0
 10 21  1  0  0  0  0
 11 12  1  0  0  0  0
 11 13  1  0  0  0  0
 13 14  1  0  0  0  0
 13 19  1  0  0  0  0
 14 15  1  0  0  0  0
 15 16  2  0  0  0  0
 15 17  1  0  0  0  0
 17 18  1  0  0  0  0
 18 19  1  0  0  0  0
 18 25  1  0  0  0  0
 19 20  2  0  0  0  0
 20 21  1  0  0  0  0
 20 22  1  0  0  0  0
 22 23  1  0  0  0  0
 22 24  1  0  0  0  0
 23 24  1  0  0  0  0
 26 27  2  0  0  0  0
 26 32  1  0  0  0  0
 27 28  1  0  0  0  0
 28 29  1  0  0  0  0
 28 30  2  0  0  0  0
 30 31  1  0  0  0  0
 31 32  2  0  0  0  0
 31 36  1  0  0  0  0
 32 33  1  0  0  0  0
 33 34  2  0  0  0  0
 34 35  1  0  0  0  0
 34 41  1  0  0  0  0
 35 36  2  0  0  0  0
 35 37  1  0  0  0  0
 38 37  1  6  0  0  0
 38 39  1  0  0  0  0
 38 43  1  0  0  0  0
 39 40  2  0  0  0  0
 39 41  1  0  0  0  0
 41 42  2  0  0  0  0
 43 44  1  6  0  0  0
 43 45  1  0  0  0  0
 43 46  1  0  0  0  0
 45 46  1  0  0  0  0
 46 47  2  0  0  0  0
 48 49  2  0  0  0  0
 48 50  1  0  0  0  0
 50 51  2  0  0  0  0
 50 52  1  0  0  0  0
 52 53  2  0  0  0  0
M  CHG  1  28   1
M  END
$$$$