
 OpenBabel09242022283D

 52 60  0  0  1  0  0  0  0  0999 V2000
    4.1992    5.1805    4.0472 O   0  0  0  0  0  0  0  0  0  0  0  0
    4.6448    3.9487    3.6411 C   0  0  0  0  0  0  0  0  0  0  0  0
    4.2116    3.3662    2.5179 C   0  0  0  0  0  0  0  0  0  0  0  0
    3.2583    3.9851    1.7307 O   0  0  0  0  0  0  0  0  0  0  0  0
    3.4461    3.7708    0.3313 C   0  0  2  0  0  0  0  0  0  0  0  0
    2.5273    4.5676   -0.4194 O   0  0  0  0  0  0  0  0  0  0  0  0
    2.6411    5.9483   -0.2593 C   0  0  0  0  0  0  0  0  0  0  0  0
    1.5628    6.7453   -0.4028 C   0  0  0  0  0  0  0  0  0  0  0  0
    1.6140    8.1289   -0.3246 O   0  0  0  0  0  0  0  0  0  0  0  0
    2.8244    8.7500   -0.0699 C   0  0  0  0  0  0  0  0  0  0  0  0
    3.9639    8.0522    0.0742 C   0  0  0  0  0  0  0  0  0  0  0  0
    4.0071    6.5649   -0.0324 C   0  0  3  0  0  0  0  0  0  0  0  0
    4.8274    6.1727   -1.1333 O   0  0  0  0  0  0  0  0  0  0  0  0
    5.1942    8.8089    0.4530 C   0  0  0  0  0  0  0  0  0  0  0  0
    6.3070    8.2048    0.7115 N   0  0  0  0  0  0  0  0  0  0  0  0
    7.4168    8.9449    1.0702 C   0  0  0  0  0  0  0  0  0  0  0  0
    8.4386    8.3440    1.3765 O   0  0  0  0  0  0  0  0  0  0  0  0
    7.4325   10.3262    1.1078 N   0  0  0  0  0  0  0  0  0  0  0  0
    6.3369   10.9591    0.8708 C   0  0  0  0  0  0  0  0  0  0  0  0
    5.0843   10.2839    0.5387 C   0  0  0  0  0  0  0  0  0  0  0  0
    3.8997   10.8900    0.3321 C   0  0  0  0  0  0  0  0  0  0  0  0
    2.7915   10.1160    0.0354 N   0  0  0  0  0  0  0  0  0  0  0  0
    3.6726   12.3500    0.4068 C   0  0  0  0  0  0  0  0  0  0  0  0
    2.4289   12.9009    0.8734 O   0  0  0  0  0  0  0  0  0  0  0  0
    3.6255   13.0419    1.6634 O   0  0  0  0  0  0  0  0  0  0  0  0
    0.2229    6.2224   -0.7016 C   0  0  0  0  0  0  0  0  0  0  0  0
   -0.0579    6.1518   -2.0204 N   0  0  0  0  0  0  0  0  0  0  0  0
   -1.2544    5.6503   -2.3323 C   0  0  0  0  0  0  0  0  0  0  0  0
   -2.1864    5.2374   -1.4634 N   0  0  0  0  0  0  0  0  0  0  0  0
   -1.8914    5.3256   -0.1636 C   0  0  0  0  0  0  0  0  0  0  0  0
   -0.6723    5.8336    0.3065 C   0  0  0  0  0  0  0  0  0  0  0  0
   -0.4395    5.9195    1.7033 C   0  0  0  0  0  0  0  0  0  0  0  0
   -1.4052    5.4667    2.6036 C   0  0  0  0  0  0  0  0  0  0  0  0
   -2.5904    4.9180    2.1328 C   0  0  0  0  0  0  0  0  0  0  0  0
   -2.8317    4.8821    0.7586 C   0  0  0  0  0  0  0  0  0  0  0  0
   -3.5684    4.3936    2.9321 O   0  0  0  0  0  0  0  0  0  0  0  0
   -3.1422    3.9647    4.2318 C   0  0  2  0  0  0  0  0  0  0  0  0
   -2.2361    4.9432    4.9397 C   0  0  0  0  0  0  0  0  0  0  0  0
   -2.2994    5.2059    6.1324 O   0  0  0  0  0  0  0  0  0  0  0  0
   -1.1828    5.5678    4.0520 C   0  0  0  0  0  0  0  0  0  0  0  0
   -0.2124    6.1409    4.5205 O   0  0  0  0  0  0  0  0  0  0  0  0
   -2.5259    2.6025    4.1630 C   0  0  1  0  0  0  0  0  0  0  0  0
   -1.2804    2.4825    3.4303 O   0  0  0  0  0  0  0  0  0  0  0  0
   -2.6147    1.8417    5.3671 O   0  0  0  0  0  0  0  0  0  0  0  0
   -3.2890    1.3647    4.3042 C   0  0  0  0  0  0  0  0  0  0  0  0
   -3.1682    0.3117    3.7147 O   0  0  0  0  0  0  0  0  0  0  0  0
    3.2232    2.2950    0.0504 C   0  0  0  0  0  0  0  0  0  0  0  0
    2.4543    1.8113   -0.7663 O   0  0  0  0  0  0  0  0  0  0  0  0
    4.0951    1.4204    0.9203 C   0  0  0  0  0  0  0  0  0  0  0  0
    4.2813    0.2493    0.6297 O   0  0  0  0  0  0  0  0  0  0  0  0
    4.7451    2.0235    2.1526 C   0  0  0  0  0  0  0  0  0  0  0  0
    5.6339    1.4500    2.7593 O   0  0  0  0  0  0  0  0  0  0  0  0
  1  2  1  0  0  0  0
  2  3  2  0  0  0  0
  3  4  1  0  0  0  0
  3 51  1  0  0  0  0
  4  5  1  0  0  0  0
  5  6  1  6  0  0  0
  5 47  1  0  0  0  0
  6  7  1  0  0  0  0
  7  8  2  0  0  0  0
  7 12  1  0  0  0  0
  8  9  1  0  0  0  0
  8 26  1  0  0  0  0
  9 10  1  0  0  0  0
 10 11  2  0  0  0  0
 10 22  1  0  0  0  0
 11 12  1  0  0  0  0
 11 14  1  0  0  0  0
 12 13  1  0  0  0  0
 14 15  2  0  0  0  0
 14 20  1  0  0  0  0
 15 16  1  0  0  0  0
 16 17  2  0  0  0  0
 16 18  1  0  0  0  0
 18 19  2  0  0  0  0
 19 20  1  0  0  0  0
 20 21  2  0  0  0  0
 21 22  1  0  0  0  0
 21 23  1  0  0  0  0
 23 24  1  0  0  0  0
 23 25  1  0  0  0  0
 24 25  1  0  0  0  0
 26 27  2  0  0  0  0
 26 31  1  0  0  0  0
 27 28  1  0  0  0  0
 28 29  2  0  0  0  0
 29 30  1  0  0  0  0
 30 31  2  0  0  0  0
 30 35  1  0  0  0  0
 31 32  1  0  0  0  0
 32 33  2  0  0  0  0
 33 34  1  0  0  0  0
 33 40  1  0  0  0  0
 34 35  2  0  0  0  0
 34 36  1  0  0  0  0
 37 36  1  6  0  0  0
 37 38  1  0  0  0  0
 37 42  1  0  0  0  0
 38 39  2  0  0  0  0
 38 40  1  0  0  0  0
 40 41  2  0  0  0  0
 42 43  1  6  0  0  0
 42 44  1  0  0  0  0
 42 45  1  0  0  0  0
 44 45  1  0  0  0  0
 45 46  2  0  0  0  0
 47 48  2  0  0  0  0
 47 49  1  0  0  0  0
 49 50  2  0  0  0  0
 49 51  1  0  0  0  0
 51 52  2  0  0  0  0
M  END
$$$$