
 OpenBabel11242002063D

 54 62  0  0  1  0  0  0  0  0999 V2000
   -4.6686    6.1385   10.5694 O   0  0  0  0  0  0  0  0  0  0  0  0
   -5.6894    5.9910    9.6600 C   0  0  0  0  0  0  0  0  0  0  0  0
   -5.7880    6.7390    8.5549 C   0  0  0  0  0  0  0  0  0  0  0  0
   -4.8772    7.7568    8.3288 O   0  0  0  0  0  0  0  0  0  0  0  0
   -4.5337    7.9608    6.9715 C   0  0  2  0  0  0  0  0  0  0  0  0
   -3.6728    9.1163    6.8446 O   0  0  0  0  0  0  0  0  0  0  0  0
   -2.4701    9.1584    7.5264 C   0  0  0  0  0  0  0  0  0  0  0  0
   -1.9368   10.3353    7.9423 C   0  0  0  0  0  0  0  0  0  0  0  0
   -0.7061   10.3607    8.6297 O   0  0  0  0  0  0  0  0  0  0  0  0
   -0.0043    9.1761    8.9026 C   0  0  0  0  0  0  0  0  0  0  0  0
   -0.4458    7.9894    8.4413 C   0  0  0  0  0  0  0  0  0  0  0  0
   -1.7302    7.8553    7.6901 C   0  0  0  0  0  0  0  0  0  0  0  0
    0.3115    6.6996    8.6268 C   0  0  3  0  0  0  0  0  0  0  0  0
    0.6008    6.2982    7.3721 O   0  3  0  0  0  0  0  0  0  0  0  0
    1.5096    5.3912    7.2397 C   0  0  0  0  0  0  0  0  0  0  0  0
    1.6858    4.8929    6.0168 F   0  0  0  0  0  0  0  0  0  0  0  0
    2.3249    4.9672    8.2166 O   0  0  0  0  0  0  0  0  0  0  0  0
    2.2475    5.6108    9.4681 C   0  0  3  0  0  0  0  0  0  0  0  0
    1.5624    6.9196    9.3772 C   0  0  0  0  0  0  0  0  0  0  0  0
    1.9379    8.1239    9.8752 C   0  0  0  0  0  0  0  0  0  0  0  0
    1.1622    9.2658    9.6468 O   0  3  0  0  0  0  0  0  0  0  0  0
    3.1908    8.3326   10.6429 C   0  0  0  0  0  0  0  0  0  0  0  0
    4.4014    8.6791    9.9620 O   0  0  0  0  0  0  0  0  0  0  0  0
    3.7373    9.6501   10.7957 O   0  0  0  0  0  0  0  0  0  0  0  0
    1.4468    4.8425   10.3350 O   0  0  0  0  0  0  0  0  0  0  0  0
   -2.5886   11.6899    7.6940 C   0  0  0  0  0  0  0  0  0  0  0  0
   -3.3739   11.8640    6.5440 C   0  0  0  0  0  0  0  0  0  0  0  0
   -4.0251   13.0043    6.2931 N   0  3  0  0  0  0  0  0  0  0  0  0
   -4.8060   13.0857    5.1977 F   0  0  0  0  0  0  0  0  0  0  0  0
   -3.9302   14.0573    7.0708 N   0  0  0  0  0  0  0  0  0  0  0  0
   -3.1642   14.0107    8.1575 C   0  0  0  0  0  0  0  0  0  0  0  0
   -2.4582   12.8397    8.5301 C   0  0  0  0  0  0  0  0  0  0  0  0
   -1.6857   12.9213    9.7136 C   0  0  0  0  0  0  0  0  0  0  0  0
   -1.6066   14.1013   10.4736 C   0  0  0  0  0  0  0  0  0  0  0  0
   -0.7702   14.1369   11.6702 C   0  0  0  0  0  0  0  0  0  0  0  0
    0.0252   13.2269   11.8662 O   0  0  0  0  0  0  0  0  0  0  0  0
   -0.9451   15.3183   12.6030 C   0  0  0  0  0  0  0  0  0  0  0  0
   -0.1983   15.4370   13.5619 O   0  0  0  0  0  0  0  0  0  0  0  0
   -2.1077   16.2372   12.2654 C   0  0  1  0  0  0  0  0  0  0  0  0
   -2.3438   16.3719   10.8480 O   0  0  0  0  0  0  0  0  0  0  0  0
   -2.3142   15.2248   10.1104 C   0  0  0  0  0  0  0  0  0  0  0  0
   -3.0732   15.1638    8.9441 C   0  0  0  0  0  0  0  0  0  0  0  0
   -3.7755   16.2473    8.5764 F   0  0  0  0  0  0  0  0  0  0  0  0
   -3.3598   15.8840   13.0406 C   0  0  1  0  0  0  0  0  0  0  0  0
   -3.2593   15.9387   14.4740 O   0  0  0  0  0  0  0  0  0  0  0  0
   -4.5935   16.3749   12.4954 O   0  0  0  0  0  0  0  0  0  0  0  0
   -4.4306   15.0479   12.5226 C   0  0  0  0  0  0  0  0  0  0  0  0
   -4.4444   14.1976   11.6494 O   0  0  0  0  0  0  0  0  0  0  0  0
   -5.7549    8.2388    6.1199 C   0  0  0  0  0  0  0  0  0  0  0  0
   -5.8857    9.2059    5.3832 O   0  0  0  0  0  0  0  0  0  0  0  0
   -6.8006    7.1665    6.2745 C   0  0  0  0  0  0  0  0  0  0  0  0
   -7.4457    6.8163    5.3030 O   0  0  0  0  0  0  0  0  0  0  0  0
   -6.9118    6.4519    7.6087 C   0  0  0  0  0  0  0  0  0  0  0  0
   -7.8178    5.6764    7.8527 O   0  0  0  0  0  0  0  0  0  0  0  0
  1  2  1  0  0  0  0
  2  3  2  0  0  0  0
  3  4  1  0  0  0  0
  3 53  1  0  0  0  0
  4  5  1  0  0  0  0
  5  6  1  1  0  0  0
  5 49  1  0  0  0  0
  6  7  1  0  0  0  0
  7  8  2  0  0  0  0
  7 12  1  0  0  0  0
  8  9  1  0  0  0  0
  8 26  1  0  0  0  0
  9 10  1  0  0  0  0
 10 11  2  0  0  0  0
 10 21  1  0  0  0  0
 11 12  1  0  0  0  0
 11 13  1  0  0  0  0
 13 14  1  0  0  0  0
 13 19  1  0  0  0  0
 14 15  2  0  0  0  0
 15 16  1  0  0  0  0
 15 17  1  0  0  0  0
 17 18  1  0  0  0  0
 18 19  1  0  0  0  0
 18 25  1  0  0  0  0
 19 20  2  0  0  0  0
 20 21  1  0  0  0  0
 20 22  1  0  0  0  0
 22 23  1  0  0  0  0
 22 24  1  0  0  0  0
 23 24  1  0  0  0  0
 26 27  2  0  0  0  0
 26 32  1  0  0  0  0
 27 28  1  0  0  0  0
 28 29  1  0  0  0  0
 28 30  2  0  0  0  0
 30 31  1  0  0  0  0
 31 32  2  0  0  0  0
 31 42  1  0  0  0  0
 32 33  1  0  0  0  0
 33 34  2  0  0  0  0
 34 35  1  0  0  0  0
 34 41  1  0  0  0  0
 35 36  2  0  0  0  0
 35 37  1  0  0  0  0
 37 38  2  0  0  0  0
 39 37  1  6  0  0  0
 39 40  1  0  0  0  0
 39 44  1  0  0  0  0
 40 41  1  0  0  0  0
 41 42  2  0  0  0  0
 42 43  1  0  0  0  0
 44 45  1  1  0  0  0
 44 46  1  0  0  0  0
 44 47  1  0  0  0  0
 46 47  1  0  0  0  0
 47 48  2  0  0  0  0
 49 50  2  0  0  0  0
 49 51  1  0  0  0  0
 51 52  2  0  0  0  0
 51 53  1  0  0  0  0
 53 54  2  0  0  0  0
M  CHG  3  14   1  21   1  28   1
M  END
$$$$