
 OpenBabel11242001573D

 53 62  0  0  1  0  0  0  0  0999 V2000
    0.9337  -11.5982   -6.9404 O   0  0  0  0  0  0  0  0  0  0  0  0
   -0.3381  -11.2919   -7.3561 C   0  0  0  0  0  0  0  0  0  0  0  0
   -0.8161  -10.0423   -7.3628 C   0  0  0  0  0  0  0  0  0  0  0  0
   -0.0362   -8.9759   -6.9328 O   0  0  0  0  0  0  0  0  0  0  0  0
   -0.2112   -7.8359   -7.7638 C   0  0  2  0  0  0  0  0  0  0  0  0
    0.6906   -6.7707   -7.3977 O   0  0  0  0  0  0  0  0  0  0  0  0
    2.0277   -6.8251   -7.7509 C   0  0  0  0  0  0  0  0  0  0  0  0
    2.8819   -5.8554   -7.3467 C   0  0  0  0  0  0  0  0  0  0  0  0
    4.2501   -5.9108   -7.6719 O   0  0  0  0  0  0  0  0  0  0  0  0
    4.8112   -7.0831   -8.1793 C   0  0  0  0  0  0  0  0  0  0  0  0
    4.0284   -8.0712   -8.6319 C   0  0  0  0  0  0  0  0  0  0  0  0
    2.5286   -8.0046   -8.5560 C   0  0  0  0  0  0  0  0  0  0  0  0
    4.6356   -9.3329   -9.0584 C   0  0  0  0  0  0  0  0  0  0  0  0
    3.7940  -10.2706   -9.5154 N   0  0  0  0  0  0  0  0  0  0  0  0
    4.3172  -11.4700   -9.7959 C   0  0  0  0  0  0  0  0  0  0  0  0
    3.4892  -12.4180  -10.2455 F   0  0  0  0  0  0  0  0  0  0  0  0
    5.6174  -11.7696   -9.6757 N   0  0  0  0  0  0  0  0  0  0  0  0
    6.4293  -10.8019   -9.2289 C   0  0  0  0  0  0  0  0  0  0  0  0
    6.0011   -9.5190   -8.9400 C   0  0  0  0  0  0  0  0  0  0  0  0
    6.9256   -8.4027   -8.5441 C   0  0  3  0  0  0  0  0  0  0  0  0
    6.2118   -7.1813   -8.1138 N   0  0  0  0  0  0  0  0  0  0  0  0
    7.7825   -8.0302   -9.7105 C   0  0  0  0  0  0  0  0  0  0  0  0
    8.6318   -6.8298   -9.5668 N   0  3  0  0  0  0  0  0  0  0  0  0
    7.7508   -6.6434  -10.2070 N   0  3  0  0  0  0  0  0  0  0  0  0
    2.4798   -4.6580   -6.5179 C   0  0  0  0  0  0  0  0  0  0  0  0
    1.2324   -4.0520   -6.7088 C   0  0  0  0  0  0  0  0  0  0  0  0
    0.8706   -2.9672   -6.0123 N   0  3  0  0  0  0  0  0  0  0  0  0
   -0.3488   -2.4314   -6.2195 F   0  0  0  0  0  0  0  0  0  0  0  0
    1.6747   -2.3750   -5.1490 N   0  0  0  0  0  0  0  0  0  0  0  0
    2.8870   -2.8803   -4.9133 C   0  0  0  0  0  0  0  0  0  0  0  0
    3.3348   -4.0522   -5.5561 C   0  0  0  0  0  0  0  0  0  0  0  0
    4.6162   -4.5351   -5.2008 C   0  0  0  0  0  0  0  0  0  0  0  0
    5.4724   -3.8250   -4.3527 C   0  0  0  0  0  0  0  0  0  0  0  0
    5.0441   -2.6703   -3.7407 C   0  0  0  0  0  0  0  0  0  0  0  0
    3.7470   -2.2273   -4.0163 C   0  0  0  0  0  0  0  0  0  0  0  0
    3.3183   -1.0993   -3.4291 F   0  0  0  0  0  0  0  0  0  0  0  0
    5.8085   -1.9480   -2.8701 O   0  0  0  0  0  0  0  0  0  0  0  0
    7.2277   -2.2483   -2.7944 C   0  0  1  0  0  0  0  0  0  0  0  0
    7.6723   -3.6178   -3.1122 C   0  0  0  0  0  0  0  0  0  0  0  0
    8.6449   -4.1717   -2.6293 O   0  0  0  0  0  0  0  0  0  0  0  0
    6.8533   -4.2771   -4.1916 C   0  0  0  0  0  0  0  0  0  0  0  0
    7.3192   -5.1082   -4.9653 O   0  0  0  0  0  0  0  0  0  0  0  0
    8.0937   -1.2355   -3.2415 O   0  0  0  0  0  0  0  0  0  0  0  0
    8.0586   -1.4932   -1.7970 C   0  0  1  0  0  0  0  0  0  0  0  0
    7.1207   -0.6911   -0.9770 O   0  0  0  0  0  0  0  0  0  0  0  0
    8.3392   -0.2432   -1.1507 C   0  0  0  0  0  0  0  0  0  0  0  0
    9.2072    0.1170   -0.3836 O   0  0  0  0  0  0  0  0  0  0  0  0
   -1.6132   -7.2873   -7.5747 C   0  0  0  0  0  0  0  0  0  0  0  0
   -1.8740   -6.1030   -7.4025 O   0  0  0  0  0  0  0  0  0  0  0  0
   -2.6685   -8.3707   -7.6661 C   0  0  0  0  0  0  0  0  0  0  0  0
   -3.8501   -8.0905   -7.5842 O   0  0  0  0  0  0  0  0  0  0  0  0
   -2.1988   -9.8017   -7.8751 C   0  0  0  0  0  0  0  0  0  0  0  0
   -2.8486  -10.6142   -8.5053 O   0  0  0  0  0  0  0  0  0  0  0  0
  1  2  1  0  0  0  0
  2  3  2  0  0  0  0
  3  4  1  0  0  0  0
  3 52  1  0  0  0  0
  4  5  1  0  0  0  0
  5  6  1  1  0  0  0
  5 48  1  0  0  0  0
  6  7  1  0  0  0  0
  7  8  2  0  0  0  0
  7 12  1  0  0  0  0
  8  9  1  0  0  0  0
  8 25  1  0  0  0  0
  9 10  1  0  0  0  0
 10 11  2  0  0  0  0
 10 21  1  0  0  0  0
 11 12  1  0  0  0  0
 11 13  1  0  0  0  0
 13 14  2  0  0  0  0
 13 19  1  0  0  0  0
 14 15  1  0  0  0  0
 15 16  1  0  0  0  0
 15 17  2  0  0  0  0
 17 18  1  0  0  0  0
 18 19  2  0  0  0  0
 19 20  1  0  0  0  0
 20 21  1  0  0  0  0
 20 22  1  0  0  0  0
 22 23  1  0  0  0  0
 22 24  1  0  0  0  0
 23 24  3  0  0  0  0
 25 26  2  0  0  0  0
 25 31  1  0  0  0  0
 26 27  1  0  0  0  0
 27 28  1  0  0  0  0
 27 29  2  0  0  0  0
 29 30  1  0  0  0  0
 30 31  2  0  0  0  0
 30 35  1  0  0  0  0
 31 32  1  0  0  0  0
 32 33  2  0  0  0  0
 33 34  1  0  0  0  0
 33 41  1  0  0  0  0
 34 35  2  0  0  0  0
 34 37  1  0  0  0  0
 35 36  1  0  0  0  0
 38 37  1  6  0  0  0
 38 39  1  0  0  0  0
 38 43  1  0  0  0  0
 38 44  1  0  0  0  0
 39 40  2  0  0  0  0
 39 41  1  0  0  0  0
 41 42  2  0  0  0  0
 44 43  1  6  0  0  0
 44 45  1  0  0  0  0
 44 46  1  0  0  0  0
 45 46  1  0  0  0  0
 46 47  2  0  0  0  0
 48 49  2  0  0  0  0
 48 50  1  0  0  0  0
 50 51  2  0  0  0  0
 50 52  1  0  0  0  0
 52 53  2  0  0  0  0
M  CHG  3  23   1  24   1  27   1
M  END
$$$$