
 OpenBabel10192018293D

 51 59  0  0  1  0  0  0  0  0999 V2000
    5.8531   -8.4891   -0.1737 O   0  0  0  0  0  0  0  0  0  0  0  0
    5.5686   -7.8788    1.0205 C   0  0  0  0  0  0  0  0  0  0  0  0
    5.0353   -6.6533    1.1024 C   0  0  0  0  0  0  0  0  0  0  0  0
    4.7486   -5.9093   -0.0250 O   0  0  0  0  0  0  0  0  0  0  0  0
    3.4511   -5.3073    0.0298 C   0  0  2  0  0  0  0  0  0  0  0  0
    3.0638   -4.7850   -1.2478 O   0  0  0  0  0  0  0  0  0  0  0  0
    2.9373   -5.6820   -2.3075 C   0  0  0  0  0  0  0  0  0  0  0  0
    2.5357   -5.2625   -3.5292 C   0  0  0  0  0  0  0  0  0  0  0  0
    2.4027   -6.1175   -4.6253 O   0  0  0  0  0  0  0  0  0  0  0  0
    2.6687   -7.4725   -4.4711 C   0  0  0  0  0  0  0  0  0  0  0  0
    3.0688   -7.9780   -3.2979 C   0  0  0  0  0  0  0  0  0  0  0  0
    3.2779   -7.1399   -2.0937 C   0  0  0  0  0  0  0  0  0  0  0  0
    3.3380   -9.4378   -3.2010 C   0  0  0  0  0  0  0  0  0  0  0  0
    3.7265   -9.9601   -2.0842 N   0  0  0  0  0  0  0  0  0  0  0  0
    3.9891  -11.3105   -2.0245 C   0  0  0  0  0  0  0  0  0  0  0  0
    4.4574  -11.7540   -0.9824 O   0  0  0  0  0  0  0  0  0  0  0  0
    3.7552  -12.1749   -3.0760 N   0  0  0  0  0  0  0  0  0  0  0  0
    3.3666  -11.6831   -4.2037 C   0  0  0  0  0  0  0  0  0  0  0  0
    3.1301  -10.2522   -4.4188 C   0  0  0  0  0  0  0  0  0  0  0  0
    2.7296   -9.6519   -5.5603 C   0  0  0  0  0  0  0  0  0  0  0  0
    2.5068   -8.2797   -5.5672 N   0  0  0  0  0  0  0  0  0  0  0  0
    2.4854  -10.3463   -6.8466 C   0  0  0  0  0  0  0  0  0  0  0  0
    2.6789   -9.6875   -8.1127 O   0  0  0  0  0  0  0  0  0  0  0  0
    3.5622  -10.7498   -7.7057 O   0  0  0  0  0  0  0  0  0  0  0  0
    2.1875   -3.8571   -3.8289 C   0  0  0  0  0  0  0  0  0  0  0  0
    0.8837   -3.5582   -3.6391 N   0  0  0  0  0  0  0  0  0  0  0  0
    0.5322   -2.2925   -3.8855 C   0  0  0  0  0  0  0  0  0  0  0  0
    1.3420   -1.3153   -4.3155 N   0  0  0  0  0  0  0  0  0  0  0  0
    2.6249   -1.6283   -4.5114 C   0  0  0  0  0  0  0  0  0  0  0  0
    3.1310   -2.9177   -4.2885 C   0  0  0  0  0  0  0  0  0  0  0  0
    4.5021   -3.1685   -4.5435 C   0  0  0  0  0  0  0  0  0  0  0  0
    5.3424   -2.1464   -5.0019 C   0  0  0  0  0  0  0  0  0  0  0  0
    4.8460   -0.8714   -5.2021 C   0  0  0  0  0  0  0  0  0  0  0  0
    3.4897   -0.6314   -4.9601 C   0  0  0  0  0  0  0  0  0  0  0  0
    5.5697    0.1849   -5.6640 O   0  0  0  0  0  0  0  0  0  0  0  0
    6.9928    0.0815   -5.6630 C   0  0  2  0  0  0  0  0  0  0  0  0
    7.6357   -1.2835   -5.6787 C   0  0  0  0  0  0  0  0  0  0  0  0
    8.8319   -1.4538   -5.8762 O   0  0  0  0  0  0  0  0  0  0  0  0
    6.7461   -2.4360   -5.2926 C   0  0  0  0  0  0  0  0  0  0  0  0
    7.1968   -3.5675   -5.2083 O   0  0  0  0  0  0  0  0  0  0  0  0
    7.5516    0.9414   -4.5686 C   0  0  1  0  0  0  0  0  0  0  0  0
    7.2126    2.2928   -4.6363 F   0  0  0  0  0  0  0  0  0  0  0  0
    7.4617    0.3317   -3.2650 O   0  0  0  0  0  0  0  0  0  0  0  0
    8.6870    0.6033   -3.7347 C   0  0  0  0  0  0  0  0  0  0  0  0
    9.6003    1.2425   -3.2461 O   0  0  0  0  0  0  0  0  0  0  0  0
    3.5188   -4.2026    1.0730 C   0  0  0  0  0  0  0  0  0  0  0  0
    3.0669   -3.0728    0.9592 O   0  0  0  0  0  0  0  0  0  0  0  0
    4.1858   -4.6580    2.3575 C   0  0  0  0  0  0  0  0  0  0  0  0
    4.2516   -3.9112    3.3213 O   0  0  0  0  0  0  0  0  0  0  0  0
    4.7658   -6.0606    2.4373 C   0  0  0  0  0  0  0  0  0  0  0  0
    4.9419   -6.6360    3.4966 O   0  0  0  0  0  0  0  0  0  0  0  0
  1  2  1  0  0  0  0
  2  3  2  0  0  0  0
  3  4  1  0  0  0  0
  3 50  1  0  0  0  0
  4  5  1  0  0  0  0
  5  6  1  6  0  0  0
  5 46  1  0  0  0  0
  6  7  1  0  0  0  0
  7  8  2  0  0  0  0
  7 12  1  0  0  0  0
  8  9  1  0  0  0  0
  8 25  1  0  0  0  0
  9 10  1  0  0  0  0
 10 11  2  0  0  0  0
 10 21  1  0  0  0  0
 11 12  1  0  0  0  0
 11 13  1  0  0  0  0
 13 14  2  0  0  0  0
 13 19  1  0  0  0  0
 14 15  1  0  0  0  0
 15 16  2  0  0  0  0
 15 17  1  0  0  0  0
 17 18  2  0  0  0  0
 18 19  1  0  0  0  0
 19 20  2  0  0  0  0
 20 21  1  0  0  0  0
 20 22  1  0  0  0  0
 22 23  1  0  0  0  0
 22 24  1  0  0  0  0
 23 24  1  0  0  0  0
 25 26  2  0  0  0  0
 25 30  1  0  0  0  0
 26 27  1  0  0  0  0
 27 28  2  0  0  0  0
 28 29  1  0  0  0  0
 29 30  2  0  0  0  0
 29 34  1  0  0  0  0
 30 31  1  0  0  0  0
 31 32  2  0  0  0  0
 32 33  1  0  0  0  0
 32 39  1  0  0  0  0
 33 34  2  0  0  0  0
 33 35  1  0  0  0  0
 36 35  1  1  0  0  0
 36 37  1  0  0  0  0
 36 41  1  0  0  0  0
 37 38  2  0  0  0  0
 37 39  1  0  0  0  0
 39 40  2  0  0  0  0
 41 42  1  6  0  0  0
 41 43  1  0  0  0  0
 41 44  1  0  0  0  0
 43 44  1  0  0  0  0
 44 45  2  0  0  0  0
 46 47  2  0  0  0  0
 46 48  1  0  0  0  0
 48 49  2  0  0  0  0
 48 50  1  0  0  0  0
 50 51  2  0  0  0  0
M  END
$$$$