
 OpenBabel09242018443D

 52 60  0  0  1  0  0  0  0  0999 V2000
   -1.3556   -4.1981    7.3757 O   0  0  0  0  0  0  0  0  0  0  0  0
   -1.8342   -3.0595    6.7821 C   0  0  0  0  0  0  0  0  0  0  0  0
   -1.0820   -2.3163    5.9647 C   0  0  0  0  0  0  0  0  0  0  0  0
    0.2403   -2.6451    5.7049 O   0  0  0  0  0  0  0  0  0  0  0  0
    0.5765   -2.5223    4.3203 C   0  0  2  0  0  0  0  0  0  0  0  0
    1.9379   -2.9183    4.0756 O   0  0  0  0  0  0  0  0  0  0  0  0
    2.3212   -4.2153    4.3929 C   0  0  0  0  0  0  0  0  0  0  0  0
    3.6049   -4.5064    4.7149 C   0  0  0  0  0  0  0  0  0  0  0  0
    4.0421   -5.8041    4.9920 O   0  0  0  0  0  0  0  0  0  0  0  0
    3.1440   -6.8614    4.9108 C   0  0  0  0  0  0  0  0  0  0  0  0
    1.8559   -6.6653    4.5929 C   0  0  0  0  0  0  0  0  0  0  0  0
    1.2929   -5.3209    4.2921 C   0  0  0  0  0  0  0  0  0  0  0  0
    0.9497   -7.8468    4.5375 C   0  0  0  0  0  0  0  0  0  0  0  0
   -0.3025   -7.7034    4.2488 N   0  0  0  0  0  0  0  0  0  0  0  0
   -1.1177   -8.8168    4.2081 C   0  0  0  0  0  0  0  0  0  0  0  0
   -2.3065   -8.6493    3.9665 O   0  0  0  0  0  0  0  0  0  0  0  0
   -0.6614  -10.1031    4.4229 N   0  0  0  0  0  0  0  0  0  0  0  0
    0.5817  -10.2760    4.7159 C   0  0  0  0  0  0  0  0  0  0  0  0
    1.5403   -9.1739    4.8167 C   0  0  0  0  0  0  0  0  0  0  0  0
    2.8519   -9.2719    5.1146 C   0  0  0  0  0  0  0  0  0  0  0  0
    3.6284   -8.1213    5.1599 N   0  0  0  0  0  0  0  0  0  0  0  0
    3.5612  -10.5390    5.4007 C   0  0  0  0  0  0  0  0  0  0  0  0
    4.6914  -10.5853    6.2899 O   0  0  0  0  0  0  0  0  0  0  0  0
    3.4458  -11.2030    6.6675 O   0  0  0  0  0  0  0  0  0  0  0  0
    4.6913   -3.4959    4.7842 C   0  0  0  0  0  0  0  0  0  0  0  0
    5.4340   -3.4055    3.6594 N   0  0  0  0  0  0  0  0  0  0  0  0
    6.4123   -2.4949    3.6738 C   0  0  0  0  0  0  0  0  0  0  0  0
    6.7145   -1.6730    4.6881 N   0  0  0  0  0  0  0  0  0  0  0  0
    5.9746   -1.7662    5.8074 C   0  0  0  0  0  0  0  0  0  0  0  0
    4.9345   -2.7050    5.9263 C   0  0  0  0  0  0  0  0  0  0  0  0
    4.2392   -2.8062    7.1550 C   0  0  0  0  0  0  0  0  0  0  0  0
    4.5055   -1.9219    8.2079 C   0  0  0  0  0  0  0  0  0  0  0  0
    3.8100   -2.0727    9.4889 C   0  0  0  0  0  0  0  0  0  0  0  0
    3.0520   -3.0071    9.6985 O   0  0  0  0  0  0  0  0  0  0  0  0
    4.0744   -1.0292   10.5485 C   0  0  0  0  0  0  0  0  0  0  0  0
    3.6976   -1.1995   11.7003 O   0  0  0  0  0  0  0  0  0  0  0  0
    4.7422    0.2268   10.0457 C   0  0  1  0  0  0  0  0  0  0  0  0
    5.7254    0.0205    9.0228 O   0  0  0  0  0  0  0  0  0  0  0  0
    5.4591   -0.9281    8.0674 C   0  0  0  0  0  0  0  0  0  0  0  0
    6.2256   -0.8786    6.8841 C   0  0  0  0  0  0  0  0  0  0  0  0
    7.4031   -0.0778    6.8697 N   0  0  0  0  0  0  0  0  0  0  0  0
    3.7312    1.2652    9.6293 C   0  0  1  0  0  0  0  0  0  0  0  0
    2.7989    0.8883    8.5912 O   0  0  0  0  0  0  0  0  0  0  0  0
    3.1341    2.0208   10.6915 O   0  0  0  0  0  0  0  0  0  0  0  0
    3.9516    2.6810    9.8627 C   0  0  0  0  0  0  0  0  0  0  0  0
    4.9457    3.3493   10.0929 O   0  0  0  0  0  0  0  0  0  0  0  0
    0.4474   -1.0705    3.8582 C   0  0  0  0  0  0  0  0  0  0  0  0
    1.0639   -0.5448    2.9426 O   0  0  0  0  0  0  0  0  0  0  0  0
   -0.6080   -0.2982    4.6148 C   0  0  0  0  0  0  0  0  0  0  0  0
   -0.5750    0.9193    4.6893 O   0  0  0  0  0  0  0  0  0  0  0  0
   -1.6562   -1.0844    5.3653 C   0  0  0  0  0  0  0  0  0  0  0  0
   -2.8219   -0.7398    5.4217 O   0  0  0  0  0  0  0  0  0  0  0  0
  1  2  1  0  0  0  0
  2  3  2  0  0  0  0
  3  4  1  0  0  0  0
  3 51  1  0  0  0  0
  4  5  1  0  0  0  0
  5  6  1  1  0  0  0
  5 47  1  0  0  0  0
  6  7  1  0  0  0  0
  7  8  2  0  0  0  0
  7 12  1  0  0  0  0
  8  9  1  0  0  0  0
  8 25  1  0  0  0  0
  9 10  1  0  0  0  0
 10 11  2  0  0  0  0
 10 21  1  0  0  0  0
 11 12  1  0  0  0  0
 11 13  1  0  0  0  0
 13 14  2  0  0  0  0
 13 19  1  0  0  0  0
 14 15  1  0  0  0  0
 15 16  2  0  0  0  0
 15 17  1  0  0  0  0
 17 18  2  0  0  0  0
 18 19  1  0  0  0  0
 19 20  2  0  0  0  0
 20 21  1  0  0  0  0
 20 22  1  0  0  0  0
 22 23  1  0  0  0  0
 22 24  1  0  0  0  0
 23 24  1  0  0  0  0
 25 26  2  0  0  0  0
 25 30  1  0  0  0  0
 26 27  1  0  0  0  0
 27 28  2  0  0  0  0
 28 29  1  0  0  0  0
 29 30  2  0  0  0  0
 29 40  1  0  0  0  0
 30 31  1  0  0  0  0
 31 32  2  0  0  0  0
 32 33  1  0  0  0  0
 32 39  1  0  0  0  0
 33 34  2  0  0  0  0
 33 35  1  0  0  0  0
 35 36  2  0  0  0  0
 37 35  1  6  0  0  0
 37 38  1  0  0  0  0
 37 42  1  0  0  0  0
 38 39  1  0  0  0  0
 39 40  2  0  0  0  0
 40 41  1  0  0  0  0
 42 43  1  6  0  0  0
 42 44  1  0  0  0  0
 42 45  1  0  0  0  0
 44 45  1  0  0  0  0
 45 46  2  0  0  0  0
 47 48  2  0  0  0  0
 47 49  1  0  0  0  0
 49 50  2  0  0  0  0
 49 51  1  0  0  0  0
 51 52  2  0  0  0  0
M  END
$$$$