
 OpenBabel09232010093D

 52 60  0  0  1  0  0  0  0  0999 V2000
    5.0810   -8.2194    0.9850 F   0  0  0  0  0  0  0  0  0  0  0  0
    4.9291   -7.2833    1.9396 C   0  0  0  0  0  0  0  0  0  0  0  0
    4.5020   -6.0515    1.6532 C   0  0  0  0  0  0  0  0  0  0  0  0
    4.2637   -5.6519    0.3528 O   0  0  0  0  0  0  0  0  0  0  0  0
    3.0536   -4.9171    0.1769 C   0  0  2  0  0  0  0  0  0  0  0  0
    2.9070   -4.4604   -1.1897 O   0  0  0  0  0  0  0  0  0  0  0  0
    2.8914   -5.4077   -2.2155 C   0  0  0  0  0  0  0  0  0  0  0  0
    3.2233   -5.0910   -3.4882 C   0  0  0  0  0  0  0  0  0  0  0  0
    3.2462   -6.0042   -4.5351 O   0  0  0  0  0  0  0  0  0  0  0  0
    2.9357   -7.3190   -4.3013 C   0  0  0  0  0  0  0  0  0  0  0  0
    2.4740   -7.7514   -3.0773 C   0  0  0  0  0  0  0  0  0  0  0  0
    2.4257   -6.8099   -1.9122 C   0  0  0  0  0  0  0  0  0  0  0  0
    2.1300   -9.0994   -2.9831 C   0  0  0  0  0  0  0  0  0  0  0  0
    1.5936   -9.6116   -1.7954 N   0  0  0  0  0  0  0  0  0  0  0  0
    1.3131  -10.9194   -1.5703 C   0  0  0  0  0  0  0  0  0  0  0  0
    0.8735  -11.2999   -0.4908 O   0  0  0  0  0  0  0  0  0  0  0  0
    1.5610  -11.7842   -2.5760 N   0  0  0  0  0  0  0  0  0  0  0  0
    1.9228  -11.4052   -3.9147 C   0  0  0  0  0  0  0  0  0  0  0  0
    2.3180   -9.9693   -4.0638 C   0  0  0  0  0  0  0  0  0  0  0  0
    2.8340   -9.4585   -5.2624 C   0  0  0  0  0  0  0  0  0  0  0  0
    3.1065   -8.1286   -5.3711 N   0  0  0  0  0  0  0  0  0  0  0  0
    3.0981  -10.2907   -6.5033 C   0  0  0  0  0  0  0  0  0  0  0  0
    4.4098  -10.8720   -6.6186 O   0  0  0  0  0  0  0  0  0  0  0  0
    3.2615  -11.7145   -6.4222 O   0  0  0  0  0  0  0  0  0  0  0  0
    3.6046   -3.7494   -3.9711 C   0  0  0  0  0  0  0  0  0  0  0  0
    4.9269   -3.4866   -3.8937 N   0  0  0  0  0  0  0  0  0  0  0  0
    5.3345   -2.3698   -4.5017 C   0  0  0  0  0  0  0  0  0  0  0  0
    4.5576   -1.4938   -5.1529 N   0  0  0  0  0  0  0  0  0  0  0  0
    3.2533   -1.7701   -5.2224 C   0  0  0  0  0  0  0  0  0  0  0  0
    2.6881   -2.9190   -4.6486 C   0  0  0  0  0  0  0  0  0  0  0  0
    1.2985   -3.1637   -4.8183 C   0  0  0  0  0  0  0  0  0  0  0  0
    0.5052   -2.2709   -5.5463 C   0  0  0  0  0  0  0  0  0  0  0  0
    1.0751   -1.1414   -6.1186 C   0  0  0  0  0  0  0  0  0  0  0  0
    2.4351   -0.8937   -5.9284 C   0  0  0  0  0  0  0  0  0  0  0  0
    0.4000   -0.2354   -6.8921 O   0  0  0  0  0  0  0  0  0  0  0  0
   -0.8189   -0.7024   -7.4875 C   0  0  2  0  0  0  0  0  0  0  0  0
   -1.6878   -1.4892   -6.5374 C   0  0  0  0  0  0  0  0  0  0  0  0
   -2.8969   -1.3471   -6.4229 O   0  0  0  0  0  0  0  0  0  0  0  0
   -0.9327   -2.5183   -5.7260 C   0  0  0  0  0  0  0  0  0  0  0  0
   -1.4950   -3.4899   -5.2476 O   0  0  0  0  0  0  0  0  0  0  0  0
   -0.5426   -1.4766   -8.7401 C   0  0  1  0  0  0  0  0  0  0  0  0
    0.2682   -2.6691   -8.6041 O   0  0  0  0  0  0  0  0  0  0  0  0
   -1.6652   -1.5963   -9.6158 O   0  0  0  0  0  0  0  0  0  0  0  0
   -0.6063   -0.9073  -10.0864 C   0  0  0  0  0  0  0  0  0  0  0  0
    0.0803   -1.1222  -11.0583 O   0  0  0  0  0  0  0  0  0  0  0  0
    2.9318   -3.7148    1.1488 C   0  0  0  0  0  0  0  0  0  0  0  0
    2.2570   -2.7160    0.9004 O   0  0  0  0  0  0  0  0  0  0  0  0
    3.6032   -3.8747    2.4753 C   0  0  0  0  0  0  0  0  0  0  0  0
    3.4820   -2.9144    3.4081 C   0  0  0  0  0  0  0  0  0  0  0  0
    4.0272   -2.9257    4.6715 O   0  0  0  0  0  0  0  0  0  0  0  0
    4.3631   -5.1037    2.7893 C   0  0  0  0  0  0  0  0  0  0  0  0
    4.8263   -5.3210    3.9057 O   0  0  0  0  0  0  0  0  0  0  0  0
  1  2  1  0  0  0  0
  2  3  2  0  0  0  0
  3  4  1  0  0  0  0
  3 51  1  0  0  0  0
  4  5  1  0  0  0  0
  5  6  1  6  0  0  0
  5 46  1  0  0  0  0
  6  7  1  0  0  0  0
  7  8  2  0  0  0  0
  7 12  1  0  0  0  0
  8  9  1  0  0  0  0
  8 25  1  0  0  0  0
  9 10  1  0  0  0  0
 10 11  2  0  0  0  0
 10 21  1  0  0  0  0
 11 12  1  0  0  0  0
 11 13  1  0  0  0  0
 13 14  1  0  0  0  0
 13 19  2  0  0  0  0
 14 15  1  0  0  0  0
 15 16  2  0  0  0  0
 15 17  1  0  0  0  0
 17 18  1  0  0  0  0
 18 19  1  0  0  0  0
 19 20  1  0  0  0  0
 20 21  2  0  0  0  0
 20 22  1  0  0  0  0
 22 23  1  0  0  0  0
 22 24  1  0  0  0  0
 23 24  1  0  0  0  0
 25 26  2  0  0  0  0
 25 30  1  0  0  0  0
 26 27  1  0  0  0  0
 27 28  2  0  0  0  0
 28 29  1  0  0  0  0
 29 30  2  0  0  0  0
 29 34  1  0  0  0  0
 30 31  1  0  0  0  0
 31 32  2  0  0  0  0
 32 33  1  0  0  0  0
 32 39  1  0  0  0  0
 33 34  2  0  0  0  0
 33 35  1  0  0  0  0
 36 35  1  1  0  0  0
 36 37  1  0  0  0  0
 36 41  1  0  0  0  0
 37 38  2  0  0  0  0
 37 39  1  0  0  0  0
 39 40  2  0  0  0  0
 41 42  1  1  0  0  0
 41 43  1  0  0  0  0
 41 44  1  0  0  0  0
 43 44  1  0  0  0  0
 44 45  2  0  0  0  0
 46 47  2  0  0  0  0
 46 48  1  0  0  0  0
 48 49  2  0  0  0  0
 48 51  1  0  0  0  0
 49 50  1  0  0  0  0
 51 52  2  0  0  0  0
M  END
$$$$