
 OpenBabel09262021463D

 53 61  0  0  1  0  0  0  0  0999 V2000
    7.7544   -6.6684    1.3746 O   0  0  0  0  0  0  0  0  0  0  0  0
    7.5474   -5.7979    2.4132 C   0  0  0  0  0  0  0  0  0  0  0  0
    6.5296   -4.9291    2.4399 C   0  0  0  0  0  0  0  0  0  0  0  0
    5.6377   -4.8416    1.3870 O   0  0  0  0  0  0  0  0  0  0  0  0
    4.2878   -4.6432    1.8055 C   0  0  2  0  0  0  0  0  0  0  0  0
    3.3759   -4.7217    0.7040 O   0  0  0  0  0  0  0  0  0  0  0  0
    3.3558   -5.9247    0.0081 C   0  0  0  0  0  0  0  0  0  0  0  0
    3.0660   -5.9589   -1.3094 C   0  0  0  0  0  0  0  0  0  0  0  0
    2.9874   -7.1360   -2.0470 O   0  0  0  0  0  0  0  0  0  0  0  0
    3.1458   -8.3513   -1.4035 C   0  0  0  0  0  0  0  0  0  0  0  0
    3.4075   -8.4219   -0.0900 C   0  0  0  0  0  0  0  0  0  0  0  0
    3.5811   -7.2140    0.7655 C   0  0  0  0  0  0  0  0  0  0  0  0
    3.5379   -9.7714    0.5236 C   0  0  0  0  0  0  0  0  0  0  0  0
    3.7854   -9.8990    1.7861 N   0  0  0  0  0  0  0  0  0  0  0  0
    3.9091  -11.1652    2.3230 C   0  0  0  0  0  0  0  0  0  0  0  0
    4.2016  -11.2614    3.5079 O   0  0  0  0  0  0  0  0  0  0  0  0
    3.7232  -12.3237    1.5944 N   0  0  0  0  0  0  0  0  0  0  0  0
    3.4814  -12.2263    0.3335 C   0  0  0  0  0  0  0  0  0  0  0  0
    3.3730  -10.9460   -0.3647 C   0  0  0  0  0  0  0  0  0  0  0  0
    3.1366  -10.7702   -1.6809 C   0  0  0  0  0  0  0  0  0  0  0  0
    3.0165   -9.4783   -2.1718 N   0  0  0  0  0  0  0  0  0  0  0  0
    2.9986  -11.8566   -2.6835 C   0  0  0  0  0  0  0  0  0  0  0  0
    2.7668  -11.5787   -4.0775 O   0  0  0  0  0  0  0  0  0  0  0  0
    4.0316  -12.1176   -3.6479 O   0  0  0  0  0  0  0  0  0  0  0  0
    2.7766   -4.7589   -2.1120 C   0  0  0  0  0  0  0  0  0  0  0  0
    3.8640   -4.1987   -2.6790 N   0  0  0  0  0  0  0  0  0  0  0  0
    3.6233   -3.1665   -3.4844 C   0  0  0  0  0  0  0  0  0  0  0  0
    2.4169   -2.6664   -3.7869 N   0  0  0  0  0  0  0  0  0  0  0  0
    1.3358   -3.2282   -3.2203 C   0  0  0  0  0  0  0  0  0  0  0  0
    1.4620   -4.3100   -2.3334 C   0  0  0  0  0  0  0  0  0  0  0  0
    0.3070   -4.8772   -1.7446 C   0  0  0  0  0  0  0  0  0  0  0  0
   -0.9613   -4.4005   -2.0706 C   0  0  0  0  0  0  0  0  0  0  0  0
   -2.1526   -5.0073   -1.4608 C   0  0  0  0  0  0  0  0  0  0  0  0
   -2.0671   -5.8358   -0.5673 O   0  0  0  0  0  0  0  0  0  0  0  0
   -3.4957   -4.5628   -1.9928 C   0  0  0  0  0  0  0  0  0  0  0  0
   -4.5365   -4.8955   -1.4420 O   0  0  0  0  0  0  0  0  0  0  0  0
   -3.4267   -3.7597   -3.2682 C   0  0  1  0  0  0  0  0  0  0  0  0
   -2.3227   -2.8533   -3.3402 O   0  0  0  0  0  0  0  0  0  0  0  0
   -1.1010   -3.3536   -2.9719 C   0  0  0  0  0  0  0  0  0  0  0  0
    0.0470   -2.7422   -3.5203 C   0  0  0  0  0  0  0  0  0  0  0  0
   -0.1042   -1.5754   -4.4740 C   0  0  0  0  0  0  0  0  0  0  0  0
   -0.2559   -2.0237   -5.8568 N   0  0  0  0  0  0  0  0  0  0  0  0
   -3.4710   -4.6476   -4.4719 C   0  0  1  0  0  0  0  0  0  0  0  0
   -2.4352   -5.6556   -4.5799 O   0  0  0  0  0  0  0  0  0  0  0  0
   -4.7832   -5.0700   -4.8442 O   0  0  0  0  0  0  0  0  0  0  0  0
   -4.1300   -4.2854   -5.7263 C   0  0  0  0  0  0  0  0  0  0  0  0
   -3.8238   -4.5223   -6.8730 O   0  0  0  0  0  0  0  0  0  0  0  0
    4.1703   -3.2846    2.4754 C   0  0  0  0  0  0  0  0  0  0  0  0
    3.3243   -2.4315    2.2519 O   0  0  0  0  0  0  0  0  0  0  0  0
    5.2103   -3.0907    3.5536 C   0  0  0  0  0  0  0  0  0  0  0  0
    5.0812   -2.2020    4.3814 O   0  0  0  0  0  0  0  0  0  0  0  0
    6.3909   -4.0401    3.6270 C   0  0  0  0  0  0  0  0  0  0  0  0
    7.1260   -4.0792    4.5998 O   0  0  0  0  0  0  0  0  0  0  0  0
  1  2  1  0  0  0  0
  2  3  2  0  0  0  0
  3  4  1  0  0  0  0
  3 52  1  0  0  0  0
  4  5  1  0  0  0  0
  5  6  1  6  0  0  0
  5 48  1  0  0  0  0
  6  7  1  0  0  0  0
  7  8  2  0  0  0  0
  7 12  1  0  0  0  0
  8  9  1  0  0  0  0
  8 25  1  0  0  0  0
  9 10  1  0  0  0  0
 10 11  2  0  0  0  0
 10 21  1  0  0  0  0
 11 12  1  0  0  0  0
 11 13  1  0  0  0  0
 13 14  2  0  0  0  0
 13 19  1  0  0  0  0
 14 15  1  0  0  0  0
 15 16  2  0  0  0  0
 15 17  1  0  0  0  0
 17 18  2  0  0  0  0
 18 19  1  0  0  0  0
 19 20  2  0  0  0  0
 20 21  1  0  0  0  0
 20 22  1  0  0  0  0
 22 23  1  0  0  0  0
 22 24  1  0  0  0  0
 23 24  1  0  0  0  0
 25 26  2  0  0  0  0
 25 30  1  0  0  0  0
 26 27  1  0  0  0  0
 27 28  2  0  0  0  0
 28 29  1  0  0  0  0
 29 30  2  0  0  0  0
 29 40  1  0  0  0  0
 30 31  1  0  0  0  0
 31 32  2  0  0  0  0
 32 33  1  0  0  0  0
 32 39  1  0  0  0  0
 33 34  2  0  0  0  0
 33 35  1  0  0  0  0
 35 36  2  0  0  0  0
 37 35  1  1  0  0  0
 37 38  1  0  0  0  0
 37 43  1  0  0  0  0
 38 39  1  0  0  0  0
 39 40  2  0  0  0  0
 40 41  1  0  0  0  0
 41 42  1  0  0  0  0
 43 44  1  6  0  0  0
 43 45  1  0  0  0  0
 43 46  1  0  0  0  0
 45 46  1  0  0  0  0
 46 47  2  0  0  0  0
 48 49  2  0  0  0  0
 48 50  1  0  0  0  0
 50 51  2  0  0  0  0
 50 52  1  0  0  0  0
 52 53  2  0  0  0  0
M  END
$$$$