
 OpenBabel11232001093D

 52 61  0  0  1  0  0  0  0  0999 V2000
  -13.6156   -9.2826   10.6501 O   0  0  0  0  0  0  0  0  0  0  0  0
  -13.4021   -8.3834   11.6615 C   0  0  0  0  0  0  0  0  0  0  0  0
  -12.4328   -7.4603   11.6252 C   0  0  0  0  0  0  0  0  0  0  0  0
  -11.5402   -7.3679   10.5673 O   0  0  0  0  0  0  0  0  0  0  0  0
  -11.2544   -6.0236   10.1758 C   0  0  2  0  0  0  0  0  0  0  0  0
  -10.2577   -5.9729    9.1329 O   0  0  0  0  0  0  0  0  0  0  0  0
  -10.6694   -6.1256    7.8160 C   0  0  0  0  0  0  0  0  0  0  0  0
   -9.9478   -5.6118    6.7907 C   0  0  0  0  0  0  0  0  0  0  0  0
  -10.3135   -5.7879    5.4527 O   0  0  0  0  0  0  0  0  0  0  0  0
  -11.4028   -6.5945    5.1388 C   0  0  0  0  0  0  0  0  0  0  0  0
  -12.1787   -7.1493    6.0853 C   0  0  0  0  0  0  0  0  0  0  0  0
  -11.9145   -6.9409    7.5410 C   0  0  0  0  0  0  0  0  0  0  0  0
  -13.3464   -8.0359    5.7107 C   0  0  3  0  0  0  0  0  0  0  0  0
  -14.5216   -7.4717    6.2916 O   0  0  0  0  0  0  0  0  0  0  0  0
  -15.7598   -7.8719    5.9117 C   0  0  0  0  0  0  0  0  0  0  0  0
  -16.7522   -7.5496    6.5525 O   0  0  0  0  0  0  0  0  0  0  0  0
  -15.8647   -8.6104    4.7813 O   0  0  0  0  0  0  0  0  0  0  0  0
  -14.7590   -8.9937    3.9762 C   0  0  3  0  0  0  0  0  0  0  0  0
  -13.5605   -8.1727    4.2455 C   0  0  0  0  0  0  0  0  0  0  0  0
  -12.7365   -7.5906    3.3451 C   0  0  0  0  0  0  0  0  0  0  0  0
  -11.6726   -6.8266    3.8103 N   0  0  0  0  0  0  0  0  0  0  0  0
  -12.8795   -7.7190    1.8753 C   0  0  0  0  0  0  0  0  0  0  0  0
  -13.7062   -6.8212    1.1186 O   0  0  0  0  0  0  0  0  0  0  0  0
  -12.2740   -6.7902    0.9603 O   0  0  0  0  0  0  0  0  0  0  0  0
  -14.4406  -10.3469    4.2552 O   0  0  0  0  0  0  0  0  0  0  0  0
   -8.7397   -4.7641    6.9618 C   0  0  0  0  0  0  0  0  0  0  0  0
   -8.9239   -3.3966    7.1211 C   0  0  0  0  0  0  0  0  0  0  0  0
   -7.9091   -2.5197    7.2553 N   0  0  0  0  0  0  0  0  0  0  0  0
   -6.6285   -2.9757    7.2493 N   0  0  0  0  0  0  0  0  0  0  0  0
   -6.3655   -4.2763    7.0941 C   0  0  0  0  0  0  0  0  0  0  0  0
   -7.3995   -5.2326    6.9307 C   0  0  0  0  0  0  0  0  0  0  0  0
   -7.0227   -6.5833    6.7276 C   0  0  0  0  0  0  0  0  0  0  0  0
   -5.6698   -6.9558    6.6967 C   0  0  0  0  0  0  0  0  0  0  0  0
   -4.6765   -6.0063    6.9159 C   0  0  0  0  0  0  0  0  0  0  0  0
   -5.0324   -4.6745    7.0915 C   0  0  0  0  0  0  0  0  0  0  0  0
   -3.3351   -6.3067    6.9696 O   0  0  0  0  0  0  0  0  0  0  0  0
   -3.0744   -7.6975    7.2708 C   0  0  1  0  0  0  0  0  0  0  0  0
   -3.7890   -8.6573    6.4198 C   0  0  0  0  0  0  0  0  0  0  0  0
   -3.2813   -9.5949    5.8342 O   0  0  0  0  0  0  0  0  0  0  0  0
   -5.2759   -8.3507    6.4177 C   0  0  0  0  0  0  0  0  0  0  0  0
   -6.0987   -9.2307    6.2239 O   0  0  0  0  0  0  0  0  0  0  0  0
   -1.7736   -8.0341    7.6812 O   0  0  0  0  0  0  0  0  0  0  0  0
   -2.8322   -8.1233    8.6856 C   0  0  1  0  0  0  0  0  0  0  0  0
   -3.0827   -6.9439    9.5375 O   0  0  0  0  0  0  0  0  0  0  0  0
   -2.2207   -7.8332    9.9439 C   0  0  0  0  0  0  0  0  0  0  0  0
   -2.1346   -8.4635   10.9946 O   0  0  0  0  0  0  0  0  0  0  0  0
  -10.7014   -5.1643   11.3068 C   0  0  0  0  0  0  0  0  0  0  0  0
  -10.0740   -4.1236   11.1670 O   0  0  0  0  0  0  0  0  0  0  0  0
  -11.1034   -5.6404   12.6785 C   0  0  0  0  0  0  0  0  0  0  0  0
  -10.4691   -5.3184   13.6695 O   0  0  0  0  0  0  0  0  0  0  0  0
  -12.2975   -6.5532   12.7948 C   0  0  0  0  0  0  0  0  0  0  0  0
  -13.0706   -6.4956   13.7347 O   0  0  0  0  0  0  0  0  0  0  0  0
  1  2  1  0  0  0  0
  2  3  2  0  0  0  0
  3  4  1  0  0  0  0
  3 51  1  0  0  0  0
  4  5  1  0  0  0  0
  5  6  1  6  0  0  0
  5 47  1  0  0  0  0
  6  7  1  0  0  0  0
  7  8  2  0  0  0  0
  7 12  1  0  0  0  0
  8  9  1  0  0  0  0
  8 26  1  0  0  0  0
  9 10  1  0  0  0  0
 10 11  2  0  0  0  0
 10 21  1  0  0  0  0
 11 12  1  0  0  0  0
 11 13  1  0  0  0  0
 13 14  1  0  0  0  0
 13 19  1  0  0  0  0
 14 15  1  0  0  0  0
 15 16  2  0  0  0  0
 15 17  1  0  0  0  0
 17 18  1  0  0  0  0
 18 19  1  0  0  0  0
 18 25  1  0  0  0  0
 19 20  2  0  0  0  0
 20 21  1  0  0  0  0
 20 22  1  0  0  0  0
 22 23  1  0  0  0  0
 22 24  1  0  0  0  0
 23 24  1  0  0  0  0
 26 27  2  0  0  0  0
 26 31  1  0  0  0  0
 27 28  1  0  0  0  0
 28 29  2  0  0  0  0
 29 30  1  0  0  0  0
 30 31  2  0  0  0  0
 30 35  1  0  0  0  0
 31 32  1  0  0  0  0
 32 33  2  0  0  0  0
 33 34  1  0  0  0  0
 33 40  1  0  0  0  0
 34 35  2  0  0  0  0
 34 36  1  0  0  0  0
 37 36  1  6  0  0  0
 37 38  1  0  0  0  0
 37 42  1  0  0  0  0
 37 43  1  0  0  0  0
 38 39  2  0  0  0  0
 38 40  1  0  0  0  0
 40 41  2  0  0  0  0
 43 42  1  6  0  0  0
 43 44  1  0  0  0  0
 43 45  1  0  0  0  0
 44 45  1  0  0  0  0
 45 46  2  0  0  0  0
 47 48  2  0  0  0  0
 47 49  1  0  0  0  0
 49 50  2  0  0  0  0
 49 51  1  0  0  0  0
 51 52  2  0  0  0  0
M  END
$$$$