
 OpenBabel10192015393D

 52 60  0  0  1  0  0  0  0  0999 V2000
    7.5851   -7.8696    0.0064 O   0  0  0  0  0  0  0  0  0  0  0  0
    7.6068   -7.1287    1.1608 C   0  0  0  0  0  0  0  0  0  0  0  0
    6.8510   -6.0375    1.3275 C   0  0  0  0  0  0  0  0  0  0  0  0
    6.0372   -5.5776    0.3092 O   0  0  0  0  0  0  0  0  0  0  0  0
    4.7262   -5.2279    0.7579 C   0  0  2  0  0  0  0  0  0  0  0  0
    3.8562   -4.9809   -0.3556 O   0  0  0  0  0  0  0  0  0  0  0  0
    3.6702   -6.0495   -1.2323 C   0  0  0  0  0  0  0  0  0  0  0  0
    3.4043   -5.8511   -2.5448 C   0  0  0  0  0  0  0  0  0  0  0  0
    3.2160   -6.9078   -3.4445 O   0  0  0  0  0  0  0  0  0  0  0  0
    3.3201   -8.2217   -2.9968 C   0  0  0  0  0  0  0  0  0  0  0  0
    3.5179   -8.5094   -1.7011 C   0  0  0  0  0  0  0  0  0  0  0  0
    3.6967   -7.4570   -0.6670 C   0  0  0  0  0  0  0  0  0  0  0  0
    3.6294   -9.9421   -1.2885 C   0  0  0  0  0  0  0  0  0  0  0  0
    3.8123  -10.2578   -0.0472 N   0  0  0  0  0  0  0  0  0  0  0  0
    3.9326  -11.5885    0.3015 C   0  0  0  0  0  0  0  0  0  0  0  0
    4.1300  -11.8578    1.4797 O   0  0  0  0  0  0  0  0  0  0  0  0
    3.8541  -12.6257   -0.6068 N   0  0  0  0  0  0  0  0  0  0  0  0
    3.6680  -12.3437   -1.8499 C   0  0  0  0  0  0  0  0  0  0  0  0
    3.5432  -10.9729   -2.3501 C   0  0  0  0  0  0  0  0  0  0  0  0
    3.3774  -10.5674   -3.6209 C   0  0  0  0  0  0  0  0  0  0  0  0
    3.2396   -9.2228   -3.9325 N   0  0  0  0  0  0  0  0  0  0  0  0
    3.3339  -11.5470   -4.7490 C   0  0  0  0  0  0  0  0  0  0  0  0
    2.0380  -12.0762   -5.0567 O   0  0  0  0  0  0  0  0  0  0  0  0
    2.2069  -11.7086   -6.4280 C   0  0  0  0  0  0  0  0  0  0  0  0
    3.3783  -10.9728   -6.0673 O   0  0  0  0  0  0  0  0  0  0  0  0
    3.1969   -4.5141   -3.1580 C   0  0  0  0  0  0  0  0  0  0  0  0
    1.9066   -4.1061   -3.1287 N   0  0  0  0  0  0  0  0  0  0  0  0
    1.6372   -2.9358   -3.7160 C   0  0  0  0  0  0  0  0  0  0  0  0
    2.5152   -2.1506   -4.3496 N   0  0  0  0  0  0  0  0  0  0  0  0
    3.7805   -2.5653   -4.3873 C   0  0  0  0  0  0  0  0  0  0  0  0
    4.2123   -3.7652   -3.7906 C   0  0  0  0  0  0  0  0  0  0  0  0
    5.5799   -4.1213   -3.9041 C   0  0  0  0  0  0  0  0  0  0  0  0
    6.4647   -3.3164   -4.6359 C   0  0  0  0  0  0  0  0  0  0  0  0
    6.0359   -2.1258   -5.2018 C   0  0  0  0  0  0  0  0  0  0  0  0
    4.6952   -1.7677   -5.0690 C   0  0  0  0  0  0  0  0  0  0  0  0
    6.8165   -1.2699   -5.9235 O   0  0  0  0  0  0  0  0  0  0  0  0
    8.2331   -1.4812   -5.9019 C   0  0  2  0  0  0  0  0  0  0  0  0
    8.6633   -2.9239   -5.8206 C   0  0  0  0  0  0  0  0  0  0  0  0
    9.6622   -3.3747   -6.3617 O   0  0  0  0  0  0  0  0  0  0  0  0
    7.8389   -3.7625   -4.8750 C   0  0  0  0  0  0  0  0  0  0  0  0
    8.3081   -4.7560   -4.3459 O   0  0  0  0  0  0  0  0  0  0  0  0
    8.8814   -0.6376   -4.8432 C   0  0  1  0  0  0  0  0  0  0  0  0
    8.7143    0.7941   -4.9798 O   0  0  0  0  0  0  0  0  0  0  0  0
    8.7678   -1.1509   -3.5153 O   0  0  0  0  0  0  0  0  0  0  0  0
   10.0171   -1.0613   -4.0192 C   0  0  0  0  0  0  0  0  0  0  0  0
   10.9674   -0.4366   -3.6050 O   0  0  0  0  0  0  0  0  0  0  0  0
    4.8492   -4.0085    1.6574 C   0  0  0  0  0  0  0  0  0  0  0  0
    4.2031   -2.9751    1.5764 O   0  0  0  0  0  0  0  0  0  0  0  0
    5.8679   -4.2104    2.7585 C   0  0  0  0  0  0  0  0  0  0  0  0
    5.8270   -3.5205    3.7658 O   0  0  0  0  0  0  0  0  0  0  0  0
    6.9013   -5.3161    2.6290 C   0  0  0  0  0  0  0  0  0  0  0  0
    7.6673   -5.5961    3.5359 O   0  0  0  0  0  0  0  0  0  0  0  0
  1  2  1  0  0  0  0
  2  3  2  0  0  0  0
  3  4  1  0  0  0  0
  3 51  1  0  0  0  0
  4  5  1  0  0  0  0
  5  6  1  6  0  0  0
  5 47  1  0  0  0  0
  6  7  1  0  0  0  0
  7  8  2  0  0  0  0
  7 12  1  0  0  0  0
  8  9  1  0  0  0  0
  8 26  1  0  0  0  0
  9 10  1  0  0  0  0
 10 11  2  0  0  0  0
 10 21  1  0  0  0  0
 11 12  1  0  0  0  0
 11 13  1  0  0  0  0
 13 14  2  0  0  0  0
 13 19  1  0  0  0  0
 14 15  1  0  0  0  0
 15 16  2  0  0  0  0
 15 17  1  0  0  0  0
 17 18  2  0  0  0  0
 18 19  1  0  0  0  0
 19 20  2  0  0  0  0
 20 21  1  0  0  0  0
 20 22  1  0  0  0  0
 22 23  1  0  0  0  0
 22 25  1  0  0  0  0
 23 24  1  0  0  0  0
 24 25  1  0  0  0  0
 26 27  2  0  0  0  0
 26 31  1  0  0  0  0
 27 28  1  0  0  0  0
 28 29  2  0  0  0  0
 29 30  1  0  0  0  0
 30 31  2  0  0  0  0
 30 35  1  0  0  0  0
 31 32  1  0  0  0  0
 32 33  2  0  0  0  0
 33 34  1  0  0  0  0
 33 40  1  0  0  0  0
 34 35  2  0  0  0  0
 34 36  1  0  0  0  0
 37 36  1  1  0  0  0
 37 38  1  0  0  0  0
 37 42  1  0  0  0  0
 38 39  2  0  0  0  0
 38 40  1  0  0  0  0
 40 41  2  0  0  0  0
 42 43  1  6  0  0  0
 42 44  1  0  0  0  0
 42 45  1  0  0  0  0
 44 45  1  0  0  0  0
 45 46  2  0  0  0  0
 47 48  2  0  0  0  0
 47 49  1  0  0  0  0
 49 50  2  0  0  0  0
 49 51  1  0  0  0  0
 51 52  2  0  0  0  0
M  END
$$$$