
 OpenBabel10272000283D

 51 59  0  0  1  0  0  0  0  0999 V2000
   -2.1318    0.6501   -5.1862 O   0  0  0  0  0  0  0  0  0  0  0  0
   -1.8928    0.8797   -3.8567 C   0  0  0  0  0  0  0  0  0  0  0  0
   -0.9153    0.2665   -3.1784 C   0  0  0  0  0  0  0  0  0  0  0  0
   -0.1254   -0.6932   -3.7868 O   0  0  0  0  0  0  0  0  0  0  0  0
    1.2319   -0.7363   -3.3495 C   0  0  2  0  0  0  0  0  0  0  0  0
    1.9597   -1.7786   -4.0058 O   0  0  0  0  0  0  0  0  0  0  0  0
    2.0522   -1.7225   -5.3892 C   0  0  0  0  0  0  0  0  0  0  0  0
    2.1274   -2.8490   -6.1232 C   0  0  0  0  0  0  0  0  0  0  0  0
    2.2543   -2.8389   -7.5030 O   0  0  0  0  0  0  0  0  0  0  0  0
    2.4314   -1.6372   -8.1879 C   0  0  0  0  0  0  0  0  0  0  0  0
    2.4399   -0.4559   -7.5482 C   0  0  0  0  0  0  0  0  0  0  0  0
    2.1745   -0.3819   -6.0629 C   0  0  0  0  0  0  0  0  0  0  0  0
    2.6655    0.8793   -8.1913 C   0  0  3  0  0  0  0  0  0  0  0  0
    3.8307    1.4455   -7.5924 O   0  0  0  0  0  0  0  0  0  0  0  0
    4.1173    2.7294   -7.9204 C   0  0  0  0  0  0  0  0  0  0  0  0
    4.8147    3.4413   -7.2139 O   0  0  0  0  0  0  0  0  0  0  0  0
    3.5281    3.1776   -9.0566 O   0  0  0  0  0  0  0  0  0  0  0  0
    3.2153    2.2695  -10.1258 C   0  0  0  0  0  0  0  0  0  0  0  0
    2.9055    0.8848   -9.6501 C   0  0  0  0  0  0  0  0  0  0  0  0
    2.8848   -0.1847  -10.4689 C   0  0  0  0  0  0  0  0  0  0  0  0
    2.6100   -1.8099   -9.8997 S   0  0  0  0  0  0  0  0  0  0  0  0
    3.1077   -0.1112  -11.9372 C   0  0  0  0  0  0  0  0  0  0  0  0
    2.1035   -0.5160  -12.8856 O   0  0  0  0  0  0  0  0  0  0  0  0
    2.4547    0.8724  -12.7627 O   0  0  0  0  0  0  0  0  0  0  0  0
    2.1076   -4.2018   -5.5297 C   0  0  0  0  0  0  0  0  0  0  0  0
    3.3292   -4.6837   -5.2092 N   0  0  0  0  0  0  0  0  0  0  0  0
    3.3513   -5.8842   -4.6239 C   0  0  0  0  0  0  0  0  0  0  0  0
    2.2846   -6.6391   -4.3282 N   0  0  0  0  0  0  0  0  0  0  0  0
    1.0857   -6.1545   -4.6603 C   0  0  0  0  0  0  0  0  0  0  0  0
    0.9179   -4.9165   -5.2997 C   0  0  0  0  0  0  0  0  0  0  0  0
   -0.3879   -4.4983   -5.6578 C   0  0  0  0  0  0  0  0  0  0  0  0
   -1.4981   -5.2935   -5.3491 C   0  0  0  0  0  0  0  0  0  0  0  0
   -1.3342   -6.4918   -4.6706 C   0  0  0  0  0  0  0  0  0  0  0  0
   -0.0407   -6.9137   -4.3519 C   0  0  0  0  0  0  0  0  0  0  0  0
   -2.3495   -7.3241   -4.2899 O   0  0  0  0  0  0  0  0  0  0  0  0
   -3.6810   -6.8011   -4.3402 C   0  0  2  0  0  0  0  0  0  0  0  0
   -3.9709   -5.8244   -5.4555 C   0  0  0  0  0  0  0  0  0  0  0  0
   -5.0401   -5.7477   -6.0454 O   0  0  0  0  0  0  0  0  0  0  0  0
   -2.8399   -4.8757   -5.7663 C   0  0  0  0  0  0  0  0  0  0  0  0
   -3.0386   -3.8267   -6.3581 O   0  0  0  0  0  0  0  0  0  0  0  0
   -4.0682   -6.2143   -3.0188 C   0  0  1  0  0  0  0  0  0  0  0  0
   -3.2515   -5.1217   -2.5311 O   0  0  0  0  0  0  0  0  0  0  0  0
   -5.4785   -6.0548   -2.8394 O   0  0  0  0  0  0  0  0  0  0  0  0
   -4.8613   -6.9143   -2.0076 C   0  0  0  0  0  0  0  0  0  0  0  0
   -4.7815   -6.8932   -0.8001 O   0  0  0  0  0  0  0  0  0  0  0  0
    1.2784   -0.9820   -1.8519 C   0  0  0  0  0  0  0  0  0  0  0  0
    1.8481   -1.8832   -1.2579 O   0  0  0  0  0  0  0  0  0  0  0  0
    0.5069    0.0665   -1.1058 C   0  0  0  0  0  0  0  0  0  0  0  0
    0.9343    0.5102   -0.0523 O   0  0  0  0  0  0  0  0  0  0  0  0
   -0.7390    0.6370   -1.7441 C   0  0  0  0  0  0  0  0  0  0  0  0
   -1.5000    1.3624   -1.1250 O   0  0  0  0  0  0  0  0  0  0  0  0
  1  2  1  0  0  0  0
  2  3  2  0  0  0  0
  3  4  1  0  0  0  0
  3 50  1  0  0  0  0
  4  5  1  0  0  0  0
  5  6  1  6  0  0  0
  5 46  1  0  0  0  0
  6  7  1  0  0  0  0
  7  8  2  0  0  0  0
  7 12  1  0  0  0  0
  8  9  1  0  0  0  0
  8 25  1  0  0  0  0
  9 10  1  0  0  0  0
 10 11  2  0  0  0  0
 10 21  1  0  0  0  0
 11 12  1  0  0  0  0
 11 13  1  0  0  0  0
 13 14  1  0  0  0  0
 13 19  1  0  0  0  0
 14 15  1  0  0  0  0
 15 16  2  0  0  0  0
 15 17  1  0  0  0  0
 17 18  1  0  0  0  0
 18 19  1  0  0  0  0
 19 20  2  0  0  0  0
 20 21  1  0  0  0  0
 20 22  1  0  0  0  0
 22 23  1  0  0  0  0
 22 24  1  0  0  0  0
 23 24  1  0  0  0  0
 25 26  2  0  0  0  0
 25 30  1  0  0  0  0
 26 27  1  0  0  0  0
 27 28  2  0  0  0  0
 28 29  1  0  0  0  0
 29 30  2  0  0  0  0
 29 34  1  0  0  0  0
 30 31  1  0  0  0  0
 31 32  2  0  0  0  0
 32 33  1  0  0  0  0
 32 39  1  0  0  0  0
 33 34  2  0  0  0  0
 33 35  1  0  0  0  0
 36 35  1  1  0  0  0
 36 37  1  0  0  0  0
 36 41  1  0  0  0  0
 37 38  2  0  0  0  0
 37 39  1  0  0  0  0
 39 40  2  0  0  0  0
 41 42  1  1  0  0  0
 41 43  1  0  0  0  0
 41 44  1  0  0  0  0
 43 44  1  0  0  0  0
 44 45  2  0  0  0  0
 46 47  2  0  0  0  0
 46 48  1  0  0  0  0
 48 49  2  0  0  0  0
 48 50  1  0  0  0  0
 50 51  2  0  0  0  0
M  END
$$$$