
 OpenBabel11262000163D

 54 62  0  0  1  0  0  0  0  0999 V2000
    7.5110    5.1987   -3.4840 O   0  0  0  0  0  0  0  0  0  0  0  0
    7.2872    3.8708   -3.7484 C   0  0  0  0  0  0  0  0  0  0  0  0
    6.2713    3.1896   -3.2037 C   0  0  0  0  0  0  0  0  0  0  0  0
    5.4326    3.7896   -2.2928 O   0  0  0  0  0  0  0  0  0  0  0  0
    4.0606    3.4434   -2.4622 C   0  0  2  0  0  0  0  0  0  0  0  0
    3.2213    4.2159   -1.5954 O   0  0  0  0  0  0  0  0  0  0  0  0
    3.1608    5.5866   -1.8287 C   0  0  0  0  0  0  0  0  0  0  0  0
    2.0549    6.2949   -1.5241 C   0  0  0  0  0  0  0  0  0  0  0  0
    1.9320    7.6660   -1.6940 O   0  0  0  0  0  0  0  0  0  0  0  0
    2.9608    8.3537   -2.2911 C   0  0  0  0  0  0  0  0  0  0  0  0
    4.1451    7.7476   -2.6395 C   0  0  0  0  0  0  0  0  0  0  0  0
    4.3714    6.2981   -2.3688 C   0  0  0  0  0  0  0  0  0  0  0  0
    5.1040    8.5394   -3.2655 C   0  0  0  0  0  0  0  0  0  0  0  0
    6.2916    7.9324   -3.6555 O   0  0  0  0  0  0  0  0  0  0  0  0
    7.2716    8.6224   -4.3530 C   0  0  0  0  0  0  0  0  0  0  0  0
    8.2818    8.0434   -4.7384 O   0  0  0  0  0  0  0  0  0  0  0  0
    7.0626    9.9397   -4.5843 O   0  0  0  0  0  0  0  0  0  0  0  0
    5.9515   10.6009   -4.2062 C   0  0  0  0  0  0  0  0  0  0  0  0
    5.8161   11.7891   -4.4658 O   0  0  0  0  0  0  0  0  0  0  0  0
    4.8900    9.8716   -3.5173 C   0  0  0  0  0  0  0  0  0  0  0  0
    3.6722   10.4366   -3.1248 C   0  0  0  0  0  0  0  0  0  0  0  0
    2.7176    9.6582   -2.5264 N   0  0  0  0  0  0  0  0  0  0  0  0
    3.3247   11.8911   -3.3374 C   0  0  0  0  0  0  0  0  0  0  0  0
    2.4437   12.5123   -2.3853 O   0  0  0  0  0  0  0  0  0  0  0  0
    3.8460   12.8396   -2.3947 O   0  0  0  0  0  0  0  0  0  0  0  0
    0.8288    5.6644   -1.0114 C   0  0  0  0  0  0  0  0  0  0  0  0
   -0.0191    5.2637   -1.9919 N   0  0  0  0  0  0  0  0  0  0  0  0
   -1.1717    4.6936   -1.6061 C   0  0  0  0  0  0  0  0  0  0  0  0
   -2.0172    4.2995   -2.5681 F   0  0  0  0  0  0  0  0  0  0  0  0
   -1.5340    4.4935   -0.2903 C   0  0  0  0  0  0  0  0  0  0  0  0
   -0.6617    4.9095    0.7202 C   0  0  0  0  0  0  0  0  0  0  0  0
    0.5630    5.5192    0.3723 C   0  0  0  0  0  0  0  0  0  0  0  0
    1.4184    5.9407    1.4214 C   0  0  0  0  0  0  0  0  0  0  0  0
    1.0675    5.7470    2.7666 C   0  0  0  0  0  0  0  0  0  0  0  0
    1.9598    6.2164    3.8356 C   0  0  0  0  0  0  0  0  0  0  0  0
    3.0003    6.8077    3.5949 O   0  0  0  0  0  0  0  0  0  0  0  0
    1.5169    5.9522    5.2572 C   0  0  0  0  0  0  0  0  0  0  0  0
    2.0192    6.5487    6.1995 O   0  0  0  0  0  0  0  0  0  0  0  0
    0.4598    4.8827    5.3922 C   0  0  1  0  0  0  0  0  0  0  0  0
   -0.5515    4.9015    4.3824 O   0  0  0  0  0  0  0  0  0  0  0  0
   -0.1300    5.1308    3.1019 C   0  0  0  0  0  0  0  0  0  0  0  0
   -0.9868    4.7315    2.0757 C   0  0  0  0  0  0  0  0  0  0  0  0
   -2.1540    4.1490    2.3992 F   0  0  0  0  0  0  0  0  0  0  0  0
    1.0744    3.5240    5.4827 C   0  0  1  0  0  0  0  0  0  0  0  0
    1.9018    3.1113    4.3686 O   0  0  0  0  0  0  0  0  0  0  0  0
    1.5453    3.1614    6.7805 O   0  0  0  0  0  0  0  0  0  0  0  0
    0.5175    2.4366    6.2893 C   0  0  0  0  0  0  0  0  0  0  0  0
    0.4502    1.2536    6.0594 O   0  0  0  0  0  0  0  0  0  0  0  0
    3.9612    1.9555   -2.1343 C   0  0  0  0  0  0  0  0  0  0  0  0
    3.1541    1.4959   -1.3237 O   0  0  0  0  0  0  0  0  0  0  0  0
    4.8577    1.0651   -2.9675 C   0  0  3  0  0  0  0  0  0  0  0  0
    6.0759    1.7506   -3.5492 C   0  0  0  0  0  0  0  0  0  0  0  0
    6.8631    1.1696   -4.2955 O   0  0  0  0  0  0  0  0  0  0  0  0
    5.2180   -0.0616   -2.2814 F   0  0  0  0  0  0  0  0  0  0  0  0
  1  2  1  0  0  0  0
  2  3  2  0  0  0  0
  3  4  1  0  0  0  0
  3 52  1  0  0  0  0
  4  5  1  0  0  0  0
  5  6  1  1  0  0  0
  5 49  1  0  0  0  0
  6  7  1  0  0  0  0
  7  8  2  0  0  0  0
  7 12  1  0  0  0  0
  8  9  1  0  0  0  0
  8 26  1  0  0  0  0
  9 10  1  0  0  0  0
 10 11  2  0  0  0  0
 10 22  1  0  0  0  0
 11 12  1  0  0  0  0
 11 13  1  0  0  0  0
 13 14  1  0  0  0  0
 13 20  2  0  0  0  0
 14 15  1  0  0  0  0
 15 16  2  0  0  0  0
 15 17  1  0  0  0  0
 17 18  1  0  0  0  0
 18 19  2  0  0  0  0
 18 20  1  0  0  0  0
 20 21  1  0  0  0  0
 21 22  2  0  0  0  0
 21 23  1  0  0  0  0
 23 24  1  0  0  0  0
 23 25  1  0  0  0  0
 24 25  1  0  0  0  0
 26 27  2  0  0  0  0
 26 32  1  0  0  0  0
 27 28  1  0  0  0  0
 28 29  1  0  0  0  0
 28 30  2  0  0  0  0
 30 31  1  0  0  0  0
 31 32  2  0  0  0  0
 31 42  1  0  0  0  0
 32 33  1  0  0  0  0
 33 34  2  0  0  0  0
 34 35  1  0  0  0  0
 34 41  1  0  0  0  0
 35 36  2  0  0  0  0
 35 37  1  0  0  0  0
 37 38  2  0  0  0  0
 39 37  1  6  0  0  0
 39 40  1  0  0  0  0
 39 44  1  0  0  0  0
 40 41  1  0  0  0  0
 41 42  2  0  0  0  0
 42 43  1  0  0  0  0
 44 45  1  6  0  0  0
 44 46  1  0  0  0  0
 44 47  1  0  0  0  0
 46 47  1  0  0  0  0
 47 48  2  0  0  0  0
 49 50  2  0  0  0  0
 49 51  1  0  0  0  0
 51 52  1  0  0  0  0
 51 54  1  0  0  0  0
 52 53  2  0  0  0  0
M  END
$$$$