
 OpenBabel11222002193D

 53 61  0  0  1  0  0  0  0  0999 V2000
    0.2533    6.6960   -6.4558 O   0  0  0  0  0  0  0  0  0  0  0  0
   -0.0803    5.3685   -6.3369 C   0  0  0  0  0  0  0  0  0  0  0  0
    0.7098    4.4737   -5.7323 C   0  0  0  0  0  0  0  0  0  0  0  0
    1.9385    4.8509   -5.2041 O   0  0  0  0  0  0  0  0  0  0  0  0
    2.2525    4.1586   -3.9921 C   0  0  2  0  0  0  0  0  0  0  0  0
    3.4307    4.7124   -3.3504 O   0  0  0  0  0  0  0  0  0  0  0  0
    3.4184    6.0673   -3.0320 C   0  0  0  0  0  0  0  0  0  0  0  0
    4.5667    6.7715   -2.9122 C   0  0  0  0  0  0  0  0  0  0  0  0
    4.5945    8.1511   -2.6596 O   0  0  0  0  0  0  0  0  0  0  0  0
    3.3902    8.8529   -2.5064 C   0  0  0  0  0  0  0  0  0  0  0  0
    2.2139    8.2009   -2.4828 C   0  0  0  0  0  0  0  0  0  0  0  0
    2.0967    6.7295   -2.7395 C   0  0  0  0  0  0  0  0  0  0  0  0
    0.9076    8.9049   -2.2671 C   0  0  3  0  0  0  0  0  0  0  0  0
    0.3602    8.4484   -1.0478 O   0  0  0  0  0  0  0  0  0  0  0  0
   -0.8806    8.9209   -0.7568 C   0  0  0  0  0  0  0  0  0  0  0  0
   -1.6361    8.3254    0.0090 O   0  0  0  0  0  0  0  0  0  0  0  0
   -1.2236   10.0617   -1.4064 O   0  0  0  0  0  0  0  0  0  0  0  0
   -0.2305   11.0189   -1.8082 C   0  0  0  0  0  0  0  0  0  0  0  0
    1.0781   10.3687   -2.1281 C   0  0  0  0  0  0  0  0  0  0  0  0
    2.2806   10.9781   -2.2129 C   0  0  0  0  0  0  0  0  0  0  0  0
    3.4410   10.2292   -2.3869 O   0  3  0  0  0  0  0  0  0  0  0  0
    2.4529   12.4456   -2.0912 C   0  0  0  0  0  0  0  0  0  0  0  0
    2.7028   13.0566   -0.8209 O   0  0  0  0  0  0  0  0  0  0  0  0
    3.7448   13.0108   -1.8158 O   0  0  0  0  0  0  0  0  0  0  0  0
    5.9043    6.1314   -2.9556 C   0  0  0  0  0  0  0  0  0  0  0  0
    6.4513    5.6967   -1.7471 C   0  0  0  0  0  0  0  0  0  0  0  0
    7.6599    5.1242   -1.7053 N   0  3  0  0  0  0  0  0  0  0  0  0
    8.1734    4.7531   -0.5163 F   0  0  0  0  0  0  0  0  0  0  0  0
    8.3857    4.9273   -2.7856 N   0  0  0  0  0  0  0  0  0  0  0  0
    7.9101    5.2919   -3.9788 C   0  0  0  0  0  0  0  0  0  0  0  0
    6.6557    5.9202   -4.1294 C   0  0  0  0  0  0  0  0  0  0  0  0
    6.2338    6.2957   -5.4296 C   0  0  0  0  0  0  0  0  0  0  0  0
    7.0384    6.0368   -6.5482 C   0  0  0  0  0  0  0  0  0  0  0  0
    6.6501    6.4401   -7.9087 C   0  0  0  0  0  0  0  0  0  0  0  0
    5.7349    7.3074   -8.2093 N   0  0  0  0  0  0  0  0  0  0  0  0
    7.4317    5.8270   -9.0418 C   0  0  0  0  0  0  0  0  0  0  0  0
    7.2864    6.2847  -10.2460 N   0  0  0  0  0  0  0  0  0  0  0  0
    8.3599    4.7013   -8.6637 C   0  0  1  0  0  0  0  0  0  0  0  0
    9.0546    4.9995   -7.4351 O   0  0  0  0  0  0  0  0  0  0  0  0
    8.2484    5.3691   -6.3921 C   0  0  0  0  0  0  0  0  0  0  0  0
    8.6778    5.0371   -5.1101 C   0  0  0  0  0  0  0  0  0  0  0  0
    9.8648    4.4276   -4.9575 F   0  0  0  0  0  0  0  0  0  0  0  0
    7.6406    3.3782   -8.5589 C   0  0  1  0  0  0  0  0  0  0  0  0
    6.5792    3.2690   -7.5792 O   0  0  0  0  0  0  0  0  0  0  0  0
    7.3984    2.7099   -9.7972 O   0  0  0  0  0  0  0  0  0  0  0  0
    8.3312    2.0777   -8.9167 C   0  0  3  0  0  0  0  0  0  0  0  0
    7.8215    0.9111   -8.2451 O   0  0  0  0  0  0  0  0  0  0  0  0
    2.4755    2.6940   -4.3409 C   0  0  0  0  0  0  0  0  0  0  0  0
    3.4533    2.0373   -4.0164 O   0  0  0  0  0  0  0  0  0  0  0  0
    1.3306    2.1120   -5.1512 C   0  0  0  0  0  0  0  0  0  0  0  0
    1.2908    0.9229   -5.4115 O   0  0  0  0  0  0  0  0  0  0  0  0
    0.2457    3.0575   -5.6384 C   0  0  0  0  0  0  0  0  0  0  0  0
   -0.8975    2.6957   -5.8459 O   0  0  0  0  0  0  0  0  0  0  0  0
  1  2  1  0  0  0  0
  2  3  2  0  0  0  0
  3  4  1  0  0  0  0
  3 52  1  0  0  0  0
  4  5  1  0  0  0  0
  5  6  1  6  0  0  0
  5 48  1  0  0  0  0
  6  7  1  0  0  0  0
  7  8  2  0  0  0  0
  7 12  1  0  0  0  0
  8  9  1  0  0  0  0
  8 25  1  0  0  0  0
  9 10  1  0  0  0  0
 10 11  2  0  0  0  0
 10 21  1  0  0  0  0
 11 12  1  0  0  0  0
 11 13  1  0  0  0  0
 13 14  1  0  0  0  0
 13 19  1  0  0  0  0
 14 15  1  0  0  0  0
 15 16  2  0  0  0  0
 15 17  1  0  0  0  0
 17 18  1  0  0  0  0
 18 19  1  0  0  0  0
 19 20  2  0  0  0  0
 20 21  1  0  0  0  0
 20 22  1  0  0  0  0
 22 23  1  0  0  0  0
 22 24  1  0  0  0  0
 23 24  1  0  0  0  0
 25 26  2  0  0  0  0
 25 31  1  0  0  0  0
 26 27  1  0  0  0  0
 27 28  1  0  0  0  0
 27 29  2  0  0  0  0
 29 30  1  0  0  0  0
 30 31  2  0  0  0  0
 30 41  1  0  0  0  0
 31 32  1  0  0  0  0
 32 33  2  0  0  0  0
 33 34  1  0  0  0  0
 33 40  1  0  0  0  0
 34 35  2  0  0  0  0
 34 36  1  0  0  0  0
 36 37  2  0  0  0  0
 38 36  1  1  0  0  0
 38 39  1  0  0  0  0
 38 43  1  0  0  0  0
 39 40  1  0  0  0  0
 40 41  2  0  0  0  0
 41 42  1  0  0  0  0
 43 44  1  1  0  0  0
 43 45  1  0  0  0  0
 43 46  1  0  0  0  0
 45 46  1  0  0  0  0
 46 47  1  0  0  0  0
 48 49  2  0  0  0  0
 48 50  1  0  0  0  0
 50 51  2  0  0  0  0
 50 52  1  0  0  0  0
 52 53  2  0  0  0  0
M  CHG  2  21   1  27   1
M  END
$$$$