
 OpenBabel11212021593D

 54 62  0  0  1  0  0  0  0  0999 V2000
   -0.9313    4.4788   -6.3708 O   0  0  0  0  0  0  0  0  0  0  0  0
   -1.1847    3.3263   -5.6724 C   0  0  0  0  0  0  0  0  0  0  0  0
   -0.2908    2.7920   -4.8332 C   0  0  0  0  0  0  0  0  0  0  0  0
    0.9499    3.3858   -4.6765 O   0  0  0  0  0  0  0  0  0  0  0  0
    1.6081    3.1259   -3.4423 C   0  0  2  0  0  0  0  0  0  0  0  0
    2.8916    3.7766   -3.4114 O   0  0  0  0  0  0  0  0  0  0  0  0
    2.9105    5.1652   -3.4963 C   0  0  0  0  0  0  0  0  0  0  0  0
    3.9742    5.8009   -4.0308 C   0  0  0  0  0  0  0  0  0  0  0  0
    4.1131    7.1758   -4.0491 O   0  0  0  0  0  0  0  0  0  0  0  0
    3.1135    7.9675   -3.5289 C   0  0  0  0  0  0  0  0  0  0  0  0
    1.9842    7.4579   -3.0073 C   0  0  0  0  0  0  0  0  0  0  0  0
    1.7566    5.9747   -2.9243 C   0  0  0  0  0  0  0  0  0  0  0  0
    0.8886    8.3946   -2.5286 C   0  0  3  0  0  0  0  0  0  0  0  0
    0.5756    8.0466   -1.1762 O   0  0  0  0  0  0  0  0  0  0  0  0
   -0.1150    8.9075   -0.4032 C   0  0  0  0  0  0  0  0  0  0  0  0
   -0.5490    8.5192    0.7379 N   0  0  0  0  0  0  0  0  0  0  0  0
   -0.3266   10.1680   -0.8127 O   0  0  0  0  0  0  0  0  0  0  0  0
    0.1808   10.6830   -2.0341 C   0  0  3  0  0  0  0  0  0  0  0  0
    1.2632    9.8403   -2.5812 C   0  0  0  0  0  0  0  0  0  0  0  0
    2.4493   10.2612   -3.0707 C   0  0  0  0  0  0  0  0  0  0  0  0
    3.3256    9.3166   -3.5733 N   0  0  0  0  0  0  0  0  0  0  0  0
    2.9089   11.6686   -3.1165 C   0  0  0  0  0  0  0  0  0  0  0  0
    3.6302   12.2535   -2.0207 O   0  0  0  0  0  0  0  0  0  0  0  0
    4.3012   12.0045   -3.2706 O   0  0  0  0  0  0  0  0  0  0  0  0
   -0.8586   10.7143   -2.9976 O   0  0  0  0  0  0  0  0  0  0  0  0
    5.1196    5.1420   -4.6695 C   0  0  0  0  0  0  0  0  0  0  0  0
    6.2082    4.8006   -3.8800 C   0  0  0  0  0  0  0  0  0  0  0  0
    7.3169    4.3080   -4.4389 N   0  3  0  0  0  0  0  0  0  0  0  0
    8.3811    4.0422   -3.6579 F   0  0  0  0  0  0  0  0  0  0  0  0
    7.4256    4.0936   -5.7388 N   0  0  0  0  0  0  0  0  0  0  0  0
    6.4002    4.3866   -6.5483 C   0  0  0  0  0  0  0  0  0  0  0  0
    5.2068    4.9468   -6.0627 C   0  0  0  0  0  0  0  0  0  0  0  0
    4.1847    5.2886   -6.9861 C   0  0  0  0  0  0  0  0  0  0  0  0
    4.3240    5.0034   -8.3498 C   0  0  0  0  0  0  0  0  0  0  0  0
    3.2649    5.3468   -9.3040 C   0  0  0  0  0  0  0  0  0  0  0  0
    2.4032    6.1600   -9.0147 O   0  0  0  0  0  0  0  0  0  0  0  0
    3.2956    4.6487  -10.6476 C   0  0  0  0  0  0  0  0  0  0  0  0
    2.3756    4.7826  -11.4416 O   0  0  0  0  0  0  0  0  0  0  0  0
    4.4679    3.7100  -10.8499 C   0  0  1  0  0  0  0  0  0  0  0  0
    5.6607    4.0504  -10.1271 O   0  0  0  0  0  0  0  0  0  0  0  0
    5.4729    4.3945   -8.8181 C   0  0  0  0  0  0  0  0  0  0  0  0
    6.5071    4.1338   -7.9174 C   0  0  0  0  0  0  0  0  0  0  0  0
    7.6439    3.5905   -8.3829 F   0  0  0  0  0  0  0  0  0  0  0  0
    4.0686    2.2986  -10.5508 C   0  0  1  0  0  0  0  0  0  0  0  0
    3.6120    2.0253   -9.1989 O   0  0  0  0  0  0  0  0  0  0  0  0
    3.3621    1.6338  -11.5930 O   0  0  0  0  0  0  0  0  0  0  0  0
    4.5772    1.1329  -11.2831 C   0  0  0  0  0  0  0  0  0  0  0  0
    4.8749    0.0431  -10.8554 O   0  0  0  0  0  0  0  0  0  0  0  0
    1.8104    1.6257   -3.3185 C   0  0  0  0  0  0  0  0  0  0  0  0
    2.8802    1.0477   -3.1964 O   0  0  0  0  0  0  0  0  0  0  0  0
    0.5019    0.8785   -3.3953 C   0  0  0  0  0  0  0  0  0  0  0  0
    0.3782   -0.2008   -2.8420 O   0  0  0  0  0  0  0  0  0  0  0  0
   -0.6533    1.5226   -4.1379 C   0  0  0  0  0  0  0  0  0  0  0  0
   -1.7718    1.0390   -4.1357 O   0  0  0  0  0  0  0  0  0  0  0  0
  1  2  1  0  0  0  0
  2  3  2  0  0  0  0
  3  4  1  0  0  0  0
  3 53  1  0  0  0  0
  4  5  1  0  0  0  0
  5  6  1  6  0  0  0
  5 49  1  0  0  0  0
  6  7  1  0  0  0  0
  7  8  2  0  0  0  0
  7 12  1  0  0  0  0
  8  9  1  0  0  0  0
  8 26  1  0  0  0  0
  9 10  1  0  0  0  0
 10 11  2  0  0  0  0
 10 21  1  0  0  0  0
 11 12  1  0  0  0  0
 11 13  1  0  0  0  0
 13 14  1  0  0  0  0
 13 19  1  0  0  0  0
 14 15  1  0  0  0  0
 15 16  2  0  0  0  0
 15 17  1  0  0  0  0
 17 18  1  0  0  0  0
 18 19  1  0  0  0  0
 18 25  1  0  0  0  0
 19 20  2  0  0  0  0
 20 21  1  0  0  0  0
 20 22  1  0  0  0  0
 22 23  1  0  0  0  0
 22 24  1  0  0  0  0
 23 24  1  0  0  0  0
 26 27  2  0  0  0  0
 26 32  1  0  0  0  0
 27 28  1  0  0  0  0
 28 29  1  0  0  0  0
 28 30  2  0  0  0  0
 30 31  1  0  0  0  0
 31 32  2  0  0  0  0
 31 42  1  0  0  0  0
 32 33  1  0  0  0  0
 33 34  2  0  0  0  0
 34 35  1  0  0  0  0
 34 41  1  0  0  0  0
 35 36  2  0  0  0  0
 35 37  1  0  0  0  0
 37 38  2  0  0  0  0
 39 37  1  1  0  0  0
 39 40  1  0  0  0  0
 39 44  1  0  0  0  0
 40 41  1  0  0  0  0
 41 42  2  0  0  0  0
 42 43  1  0  0  0  0
 44 45  1  1  0  0  0
 44 46  1  0  0  0  0
 44 47  1  0  0  0  0
 46 47  1  0  0  0  0
 47 48  2  0  0  0  0
 49 50  2  0  0  0  0
 49 51  1  0  0  0  0
 51 52  2  0  0  0  0
 51 53  1  0  0  0  0
 53 54  2  0  0  0  0
M  CHG  1  28   1
M  END
$$$$