
 OpenBabel12012019093D

 54 62  0  0  1  0  0  0  0  0999 V2000
   -1.3670   -2.0613   -4.1996 O   0  0  0  0  0  0  0  0  0  0  0  0
   -0.8475   -1.0618   -3.4169 C   0  0  0  0  0  0  0  0  0  0  0  0
    0.0434   -1.3000   -2.4474 C   0  0  0  0  0  0  0  0  0  0  0  0
    0.4429   -2.5968   -2.1692 O   0  0  0  0  0  0  0  0  0  0  0  0
    1.7969   -2.7133   -1.7443 C   0  0  2  0  0  0  0  0  0  0  0  0
    2.1682   -4.0894   -1.5614 O   0  0  0  0  0  0  0  0  0  0  0  0
    2.0779   -4.8959   -2.6887 C   0  0  0  0  0  0  0  0  0  0  0  0
    1.8188   -6.2127   -2.5732 C   0  0  0  0  0  0  0  0  0  0  0  0
    1.7874   -7.0834   -3.6508 O   0  0  0  0  0  0  0  0  0  0  0  0
    2.1777   -6.6257   -4.9084 C   0  0  0  0  0  0  0  0  0  0  0  0
    2.5049   -5.3392   -5.1174 C   0  0  0  0  0  0  0  0  0  0  0  0
    2.3891   -4.3059   -4.0419 C   0  0  0  0  0  0  0  0  0  0  0  0
    3.0038   -4.8626   -6.4484 C   0  0  3  0  0  0  0  0  0  0  0  0
    4.3255   -4.3717   -6.2402 O   0  0  0  0  0  0  0  0  0  0  0  0
    5.1659   -4.1577   -7.2841 C   0  0  0  0  0  0  0  0  0  0  0  0
    6.2352   -3.5873   -7.1192 O   0  0  0  0  0  0  0  0  0  0  0  0
    4.7850   -4.6213   -8.4974 O   0  0  0  0  0  0  0  0  0  0  0  0
    3.6095   -5.3898   -8.7213 C   0  0  3  0  0  0  0  0  0  0  0  0
    3.0618   -5.9333   -7.4599 C   0  0  0  0  0  0  0  0  0  0  0  0
    2.6763   -7.2012   -7.2079 C   0  0  0  0  0  0  0  0  0  0  0  0
    2.2315   -7.5640   -5.9298 O   0  0  0  0  0  0  0  0  0  0  0  0
    2.6908   -8.2881   -8.2114 C   0  0  0  0  0  0  0  0  0  0  0  0
    3.8576   -9.0976   -8.4215 O   0  0  0  0  0  0  0  0  0  0  0  0
    2.6745   -9.6748   -7.8351 O   0  0  0  0  0  0  0  0  0  0  0  0
    2.6156   -4.5585   -9.2935 O   0  0  0  0  0  0  0  0  0  0  0  0
    1.6521   -6.8618   -1.2649 C   0  0  0  0  0  0  0  0  0  0  0  0
    2.7927   -7.3947   -0.6768 C   0  0  0  0  0  0  0  0  0  0  0  0
    2.7376   -7.9376    0.5412 N   0  3  0  0  0  0  0  0  0  0  0  0
    3.8592   -8.4523    1.0800 F   0  0  0  0  0  0  0  0  0  0  0  0
    1.6244   -7.9856    1.2481 N   0  0  0  0  0  0  0  0  0  0  0  0
    0.4938   -7.4856    0.7356 C   0  0  0  0  0  0  0  0  0  0  0  0
    0.4415   -6.9184   -0.5507 C   0  0  0  0  0  0  0  0  0  0  0  0
   -0.7995   -6.4417   -1.0403 C   0  0  0  0  0  0  0  0  0  0  0  0
   -1.9515   -6.4948   -0.2439 C   0  0  0  0  0  0  0  0  0  0  0  0
   -3.2341   -5.9923   -0.7497 C   0  0  0  0  0  0  0  0  0  0  0  0
   -3.3491   -5.5569   -1.8822 O   0  0  0  0  0  0  0  0  0  0  0  0
   -4.4010   -6.0504    0.2070 C   0  0  0  0  0  0  0  0  0  0  0  0
   -5.5492   -6.0906   -0.2071 O   0  0  0  0  0  0  0  0  0  0  0  0
   -4.0019   -6.0673    1.6633 C   0  0  1  0  0  0  0  0  0  0  0  0
   -2.9304   -6.9907    1.9295 O   0  0  0  0  0  0  0  0  0  0  0  0
   -1.8876   -7.0005    1.0440 C   0  0  0  0  0  0  0  0  0  0  0  0
   -0.6712   -7.5125    1.5003 C   0  0  0  0  0  0  0  0  0  0  0  0
   -0.6107   -8.0210    2.7429 F   0  0  0  0  0  0  0  0  0  0  0  0
   -3.7512   -4.6790    2.2026 C   0  0  1  0  0  0  0  0  0  0  0  0
   -4.8647   -3.7684    2.1422 O   0  0  0  0  0  0  0  0  0  0  0  0
   -2.9909   -4.6112    3.4198 O   0  0  0  0  0  0  0  0  0  0  0  0
   -2.4382   -4.0681    2.3268 C   0  0  0  0  0  0  0  0  0  0  0  0
   -1.3810   -4.2695    1.7633 O   0  0  0  0  0  0  0  0  0  0  0  0
    1.9506   -1.9671   -0.4369 C   0  0  0  0  0  0  0  0  0  0  0  0
    2.3374   -2.4314    0.6242 O   0  0  0  0  0  0  0  0  0  0  0  0
    1.5730   -0.5159   -0.5927 C   0  0  0  0  0  0  0  0  0  0  0  0
    2.1340    0.3337    0.0785 O   0  0  0  0  0  0  0  0  0  0  0  0
    0.5641   -0.1395   -1.6635 C   0  0  0  0  0  0  0  0  0  0  0  0
    0.2500    1.0195   -1.8725 O   0  0  0  0  0  0  0  0  0  0  0  0
  1  2  1  0  0  0  0
  2  3  2  0  0  0  0
  3  4  1  0  0  0  0
  3 53  1  0  0  0  0
  4  5  1  0  0  0  0
  5  6  1  1  0  0  0
  5 49  1  0  0  0  0
  6  7  1  0  0  0  0
  7  8  2  0  0  0  0
  7 12  1  0  0  0  0
  8  9  1  0  0  0  0
  8 26  1  0  0  0  0
  9 10  1  0  0  0  0
 10 11  2  0  0  0  0
 10 21  1  0  0  0  0
 11 12  1  0  0  0  0
 11 13  1  0  0  0  0
 13 14  1  0  0  0  0
 13 19  1  0  0  0  0
 14 15  1  0  0  0  0
 15 16  2  0  0  0  0
 15 17  1  0  0  0  0
 17 18  1  0  0  0  0
 18 19  1  0  0  0  0
 18 25  1  0  0  0  0
 19 20  2  0  0  0  0
 20 21  1  0  0  0  0
 20 22  1  0  0  0  0
 22 23  1  0  0  0  0
 22 24  1  0  0  0  0
 23 24  1  0  0  0  0
 26 27  2  0  0  0  0
 26 32  1  0  0  0  0
 27 28  1  0  0  0  0
 28 29  1  0  0  0  0
 28 30  2  0  0  0  0
 30 31  1  0  0  0  0
 31 32  2  0  0  0  0
 31 42  1  0  0  0  0
 32 33  1  0  0  0  0
 33 34  2  0  0  0  0
 34 35  1  0  0  0  0
 34 41  1  0  0  0  0
 35 36  2  0  0  0  0
 35 37  1  0  0  0  0
 37 38  2  0  0  0  0
 39 37  1  6  0  0  0
 39 40  1  0  0  0  0
 39 44  1  0  0  0  0
 40 41  1  0  0  0  0
 41 42  2  0  0  0  0
 42 43  1  0  0  0  0
 44 45  1  6  0  0  0
 44 46  1  0  0  0  0
 44 47  1  0  0  0  0
 46 47  1  0  0  0  0
 47 48  2  0  0  0  0
 49 50  2  0  0  0  0
 49 51  1  0  0  0  0
 51 52  2  0  0  0  0
 51 53  1  0  0  0  0
 53 54  2  0  0  0  0
M  CHG  1  28   1
M  END
$$$$