
 OpenBabel11252003073D

 54 63  0  0  1  0  0  0  0  0999 V2000
    2.3266   -7.7583  -13.8162 O   0  0  0  0  0  0  0  0  0  0  0  0
    2.8085   -8.9139  -13.2625 C   0  0  0  0  0  0  0  0  0  0  0  0
    3.2037   -8.9725  -11.9895 C   0  0  0  0  0  0  0  0  0  0  0  0
    3.2388   -7.8372  -11.2010 O   0  0  0  0  0  0  0  0  0  0  0  0
    2.6487   -7.9816   -9.9235 C   0  0  2  0  0  0  0  0  0  0  0  0
    2.9864   -6.8324   -9.0752 O   0  0  0  0  0  0  0  0  0  0  0  0
    4.2905   -6.6423   -8.6289 C   0  0  0  0  0  0  0  0  0  0  0  0
    4.5784   -6.0343   -7.4468 C   0  0  0  0  0  0  0  0  0  0  0  0
    5.9169   -6.0636   -6.9456 O   0  0  0  0  0  0  0  0  0  0  0  0
    6.8284   -7.0123   -7.4769 C   0  0  0  0  0  0  0  0  0  0  0  0
    6.6049   -7.5270   -8.6943 C   0  0  0  0  0  0  0  0  0  0  0  0
    5.4498   -7.0353   -9.5108 C   0  0  0  0  0  0  0  0  0  0  0  0
    7.4147   -8.6443   -9.2619 C   0  0  3  0  0  0  0  0  0  0  0  0
    7.8223   -8.3111  -10.5639 O   0  0  0  0  0  0  0  0  0  0  0  0
    8.3658   -9.3693  -11.2321 C   0  0  0  0  0  0  0  0  0  0  0  0
    8.2046   -9.5293  -12.4252 O   0  0  0  0  0  0  0  0  0  0  0  0
    9.1700  -10.1618  -10.4709 O   0  0  0  0  0  0  0  0  0  0  0  0
    9.5197   -9.7778   -9.2425 C   0  0  0  0  0  0  0  0  0  0  0  0
   10.5479  -10.1312   -8.6684 O   0  0  0  0  0  0  0  0  0  0  0  0
    8.6551   -8.8673   -8.4781 C   0  0  0  0  0  0  0  0  0  0  0  0
    8.9321   -8.3092   -7.2559 C   0  0  0  0  0  0  0  0  0  0  0  0
    7.9367   -7.4023   -6.7205 O   0  3  0  0  0  0  0  0  0  0  0  0
   10.1785   -8.5829   -6.3750 C   0  0  0  0  0  0  0  0  0  0  0  0
   11.5837   -8.6014   -6.9506 N   0  3  0  0  0  0  0  0  0  0  0  0
   11.2787   -9.6098   -6.6342 N   0  3  0  0  0  0  0  0  0  0  0  0
    3.5528   -5.2718   -6.6230 C   0  0  0  0  0  0  0  0  0  0  0  0
    2.5144   -4.6021   -7.2954 C   0  0  0  0  0  0  0  0  0  0  0  0
    1.5745   -3.9116   -6.6357 N   0  3  0  0  0  0  0  0  0  0  0  0
    0.5802   -3.3203   -7.3282 F   0  0  0  0  0  0  0  0  0  0  0  0
    1.5796   -3.7840   -5.3273 N   0  0  0  0  0  0  0  0  0  0  0  0
    2.5470   -4.3454   -4.6072 C   0  0  0  0  0  0  0  0  0  0  0  0
    3.5772   -5.1109   -5.2074 C   0  0  0  0  0  0  0  0  0  0  0  0
    4.5582   -5.6453   -4.3404 C   0  0  0  0  0  0  0  0  0  0  0  0
    4.5663   -5.3688   -2.9641 C   0  0  0  0  0  0  0  0  0  0  0  0
    3.5292   -4.6649   -2.3824 C   0  0  0  0  0  0  0  0  0  0  0  0
    2.5340   -4.1630   -3.2179 C   0  0  0  0  0  0  0  0  0  0  0  0
    1.5302   -3.4592   -2.6741 F   0  0  0  0  0  0  0  0  0  0  0  0
    3.4480   -4.4266   -1.0327 O   0  0  0  0  0  0  0  0  0  0  0  0
    4.3252   -5.2517   -0.2193 C   0  0  1  0  0  0  0  0  0  0  0  0
    5.7121   -5.3510   -0.6944 C   0  0  0  0  0  0  0  0  0  0  0  0
    6.7297   -5.1561   -0.0582 O   0  0  0  0  0  0  0  0  0  0  0  0
    5.7319   -5.7652   -2.1574 C   0  0  0  0  0  0  0  0  0  0  0  0
    6.6685   -6.3526   -2.6901 O   0  0  0  0  0  0  0  0  0  0  0  0
    4.0871   -5.2745    1.1620 O   0  0  0  0  0  0  0  0  0  0  0  0
    3.7963   -6.4983    0.4256 C   0  0  1  0  0  0  0  0  0  0  0  0
    2.4524   -6.6990   -0.1043 O   0  0  0  0  0  0  0  0  0  0  0  0
    2.7101   -7.1613    1.1034 C   0  0  0  0  0  0  0  0  0  0  0  0
    2.6308   -8.3055    1.5233 O   0  0  0  0  0  0  0  0  0  0  0  0
    2.9203   -9.2808   -9.1585 C   0  0  0  0  0  0  0  0  0  0  0  0
    2.7476   -9.4236   -7.9537 O   0  0  0  0  0  0  0  0  0  0  0  0
    3.6811  -10.3131   -9.9469 C   0  0  0  0  0  0  0  0  0  0  0  0
    4.4859  -11.0148   -9.3431 O   0  0  0  0  0  0  0  0  0  0  0  0
    3.6881  -10.2675  -11.4539 C   0  0  0  0  0  0  0  0  0  0  0  0
    4.1713  -11.1679  -12.1126 O   0  0  0  0  0  0  0  0  0  0  0  0
  1  2  1  0  0  0  0
  2  3  2  0  0  0  0
  3  4  1  0  0  0  0
  3 53  1  0  0  0  0
  4  5  1  0  0  0  0
  5  6  1  1  0  0  0
  5 49  1  0  0  0  0
  6  7  1  0  0  0  0
  7  8  2  0  0  0  0
  7 12  1  0  0  0  0
  8  9  1  0  0  0  0
  8 26  1  0  0  0  0
  9 10  1  0  0  0  0
 10 11  2  0  0  0  0
 10 22  1  0  0  0  0
 11 12  1  0  0  0  0
 11 13  1  0  0  0  0
 13 14  1  0  0  0  0
 13 20  1  0  0  0  0
 14 15  1  0  0  0  0
 15 16  2  0  0  0  0
 15 17  1  0  0  0  0
 17 18  1  0  0  0  0
 18 19  2  0  0  0  0
 18 20  1  0  0  0  0
 20 21  2  0  0  0  0
 21 22  1  0  0  0  0
 21 23  1  0  0  0  0
 23 24  1  0  0  0  0
 23 25  1  0  0  0  0
 24 25  3  0  0  0  0
 26 27  2  0  0  0  0
 26 32  1  0  0  0  0
 27 28  1  0  0  0  0
 28 29  1  0  0  0  0
 28 30  2  0  0  0  0
 30 31  1  0  0  0  0
 31 32  2  0  0  0  0
 31 36  1  0  0  0  0
 32 33  1  0  0  0  0
 33 34  2  0  0  0  0
 34 35  1  0  0  0  0
 34 42  1  0  0  0  0
 35 36  2  0  0  0  0
 35 38  1  0  0  0  0
 36 37  1  0  0  0  0
 39 38  1  6  0  0  0
 39 40  1  0  0  0  0
 39 44  1  0  0  0  0
 39 45  1  0  0  0  0
 40 41  2  0  0  0  0
 40 42  1  0  0  0  0
 42 43  2  0  0  0  0
 45 44  1  1  0  0  0
 45 46  1  0  0  0  0
 45 47  1  0  0  0  0
 46 47  1  0  0  0  0
 47 48  2  0  0  0  0
 49 50  2  0  0  0  0
 49 51  1  0  0  0  0
 51 52  2  0  0  0  0
 51 53  1  0  0  0  0
 53 54  2  0  0  0  0
M  CHG  4  22   1  24   1  25   1  28   1
M  END
$$$$