
 OpenBabel04042120443D

 60 68  0  0  1  0  0  0  0  0999 V2000
   13.7684   -5.6763    9.8583 O   0  0  0  0  0  0  0  0  0  0  0  0
   14.7425   -4.7981   10.4026 C   0  0  3  0  0  0  0  0  0  0  0  0
   14.3260   -4.3937   11.6913 O   0  3  0  0  0  0  0  0  0  0  0  0
   13.0816   -3.7231   11.7177 C   0  0  3  0  0  0  0  0  0  0  0  0
   13.2483   -2.5670   12.5256 O   0  0  0  0  0  0  0  0  0  0  0  0
   12.5335   -3.2788   10.4790 O   0  3  0  0  0  0  0  0  0  0  0  0
   13.3922   -2.9928    9.4304 C   0  0  0  0  0  0  0  0  0  0  0  0
   12.9600   -2.3823    8.3251 C   0  0  0  0  0  0  0  0  0  0  0  0
   11.6837   -1.9576    8.2275 O   0  3  0  0  0  0  0  0  0  0  0  0
   10.8408   -2.0648    9.2200 C   0  0  0  0  0  0  0  0  0  0  0  0
   11.2606   -2.6927   10.5170 C   0  0  0  0  0  0  0  0  0  0  0  0
    9.5370   -1.5656    9.1784 O   0  3  0  0  0  0  0  0  0  0  0  0
    8.8906   -1.5394    7.9174 C   0  0  0  0  0  0  0  0  0  0  0  0
    7.5806   -2.3634    7.8460 C   0  0  3  0  0  0  0  0  0  0  0  0
    6.9368   -2.2705    6.4862 C   0  0  0  0  0  0  0  0  0  0  0  0
    6.5913   -3.3300    5.7376 C   0  0  0  0  0  0  0  0  0  0  0  0
    6.9078   -4.7721    6.0387 C   0  0  3  0  0  0  0  0  0  0  0  0
    7.8748   -4.8900    7.2314 C   0  0  3  0  0  0  0  0  0  0  0  0
    7.7041   -3.8266    8.3253 C   0  0  3  0  0  0  0  0  0  0  0  0
    8.8566   -3.9876    9.2062 O   0  0  0  0  0  0  0  0  0  0  0  0
    7.8548   -6.1468    7.9284 O   0  0  0  0  0  0  0  0  0  0  0  0
    5.6873   -5.4746    6.2506 O   0  0  0  0  0  0  0  0  0  0  0  0
    5.5867   -6.8074    5.9323 C   0  0  0  0  0  0  0  0  0  0  0  0
    6.3403   -7.5044    4.9765 C   0  0  0  0  0  0  0  0  0  0  0  0
    7.3223   -6.9156    4.2332 O   0  0  0  0  0  0  0  0  0  0  0  0
    6.1276   -8.8682    4.7603 C   0  0  0  0  0  0  0  0  0  0  0  0
    6.8609   -9.5365    3.8161 O   0  0  0  0  0  0  0  0  0  0  0  0
    5.1799   -9.5777    5.4847 C   0  0  0  0  0  0  0  0  0  0  0  0
    4.3916   -8.9105    6.4065 C   0  0  0  0  0  0  0  0  0  0  0  0
    4.6197   -7.5433    6.6376 C   0  0  0  0  0  0  0  0  0  0  0  0
    3.8402   -6.9516    7.7345 C   0  0  0  0  0  0  0  0  0  0  0  0
    4.3060   -6.0944    8.4544 O   0  0  0  0  0  0  0  0  0  0  0  0
    2.5106   -7.5910    7.9743 C   0  0  0  0  0  0  0  0  0  0  0  0
    2.4096   -8.8961    7.6812 C   0  0  0  0  0  0  0  0  0  0  0  0
    3.4197   -9.6221    7.0801 O   0  0  0  0  0  0  0  0  0  0  0  0
    1.1800   -9.6893    8.0491 C   0  0  3  0  0  0  0  0  0  0  0  0
    0.4464   -9.8455    6.8260 O   0  0  0  0  0  0  0  0  0  0  0  0
    0.3404   -9.0635    9.0066 O   0  3  0  0  0  0  0  0  0  0  0  0
    0.3320   -7.6803    9.1516 C   0  0  0  0  0  0  0  0  0  0  0  0
    1.3608   -6.9021    8.5622 C   0  0  0  0  0  0  0  0  0  0  0  0
    1.2856   -5.5184    8.5780 C   0  0  0  0  0  0  0  0  0  0  0  0
    0.2110   -4.9115    9.1924 C   0  0  0  0  0  0  0  0  0  0  0  0
    0.1595   -3.5479    9.1941 O   0  0  0  0  0  0  0  0  0  0  0  0
   -0.7842   -5.6597    9.8242 C   0  0  0  0  0  0  0  0  0  0  0  0
   -0.7181   -7.0633    9.8893 C   0  0  0  0  0  0  0  0  0  0  0  0
   -1.5769   -7.9397   10.7330 C   0  0  0  0  0  0  0  0  0  0  0  0
   -1.1967   -9.2995   10.8760 C   0  0  0  0  0  0  0  0  0  0  0  0
   -0.0019   -9.8382   10.1288 C   0  0  3  0  0  0  0  0  0  0  0  0
    1.1180   -9.8655   11.0313 O   0  0  0  0  0  0  0  0  0  0  0  0
   -1.8931  -10.1480   11.7515 C   0  0  0  0  0  0  0  0  0  0  0  0
   -1.4928  -11.4492   11.8604 O   0  0  0  0  0  0  0  0  0  0  0  0
   -2.9581   -9.6773   12.4982 C   0  0  0  0  0  0  0  0  0  0  0  0
   -3.3630   -8.3657   12.3410 C   0  0  0  0  0  0  0  0  0  0  0  0
   -2.6863   -7.5044   11.4780 C   0  0  0  0  0  0  0  0  0  0  0  0
   -4.4081   -7.8669   13.0594 O   0  0  0  0  0  0  0  0  0  0  0  0
   -3.6011  -10.4698   13.4008 O   0  0  0  0  0  0  0  0  0  0  0  0
   -1.7872   -4.9061   10.3661 O   0  0  0  0  0  0  0  0  0  0  0  0
    5.0256  -10.9156    5.2810 O   0  0  0  0  0  0  0  0  0  0  0  0
    8.7803   -1.5259   10.4120 O   0  0  0  0  0  0  0  0  0  0  0  0
   14.7970   -3.5491    9.5276 C   0  0  0  0  0  0  0  0  0  0  0  0
  1  2  1  0  0  0  0
  2  3  1  0  0  0  0
  2 60  1  0  0  0  0
  3  4  1  0  0  0  0
  4  5  1  0  0  0  0
  4  6  1  0  0  0  0
  6  7  1  0  0  0  0
  6 11  1  0  0  0  0
  7  8  2  0  0  0  0
  7 60  1  0  0  0  0
  8  9  1  0  0  0  0
  9 10  2  0  0  0  0
 10 11  1  0  0  0  0
 10 12  1  0  0  0  0
 12 13  1  0  0  0  0
 12 59  1  0  0  0  0
 13 14  1  0  0  0  0
 14 15  1  0  0  0  0
 14 19  1  0  0  0  0
 15 16  2  0  0  0  0
 16 17  1  0  0  0  0
 17 18  1  0  0  0  0
 17 22  1  0  0  0  0
 18 19  1  0  0  0  0
 18 21  1  0  0  0  0
 19 20  1  0  0  0  0
 22 23  1  0  0  0  0
 23 24  2  0  0  0  0
 23 30  1  0  0  0  0
 24 25  1  0  0  0  0
 24 26  1  0  0  0  0
 26 27  1  0  0  0  0
 26 28  2  0  0  0  0
 28 29  1  0  0  0  0
 28 58  1  0  0  0  0
 29 30  2  0  0  0  0
 29 35  1  0  0  0  0
 30 31  1  0  0  0  0
 31 32  2  0  0  0  0
 31 33  1  0  0  0  0
 33 34  2  0  0  0  0
 33 40  1  0  0  0  0
 34 35  1  0  0  0  0
 34 36  1  0  0  0  0
 36 37  1  0  0  0  0
 36 38  1  0  0  0  0
 38 39  1  0  0  0  0
 38 48  1  0  0  0  0
 39 40  2  0  0  0  0
 39 45  1  0  0  0  0
 40 41  1  0  0  0  0
 41 42  2  0  0  0  0
 42 43  1  0  0  0  0
 42 44  1  0  0  0  0
 44 45  2  0  0  0  0
 44 57  1  0  0  0  0
 45 46  1  0  0  0  0
 46 47  2  0  0  0  0
 46 54  1  0  0  0  0
 47 48  1  0  0  0  0
 47 50  1  0  0  0  0
 48 49  1  0  0  0  0
 50 51  1  0  0  0  0
 50 52  2  0  0  0  0
 52 53  1  0  0  0  0
 52 56  1  0  0  0  0
 53 54  2  0  0  0  0
 53 55  1  0  0  0  0
M  RAD  1   3   2
M  CHG  5   3   1   6   1   9   1  12   1  38   1
M  END
$$$$