
 OpenBabel11212014453D

 53 61  0  0  1  0  0  0  0  0999 V2000
    2.2066    5.6345    0.9167 O   0  0  0  0  0  0  0  0  0  0  0  0
    2.1118    4.3162    1.2824 C   0  0  0  0  0  0  0  0  0  0  0  0
    1.8884    3.3386    0.3961 C   0  0  0  0  0  0  0  0  0  0  0  0
    1.6768    3.5860   -0.9450 O   0  0  0  0  0  0  0  0  0  0  0  0
    2.7601    3.0836   -1.7277 C   0  0  2  0  0  0  0  0  0  0  0  0
    2.6375    3.4457   -3.1238 O   0  0  0  0  0  0  0  0  0  0  0  0
    2.5878    4.7931   -3.4714 C   0  0  0  0  0  0  0  0  0  0  0  0
    3.0647    5.2412   -4.6536 C   0  0  0  0  0  0  0  0  0  0  0  0
    2.9753    6.5689   -5.0566 O   0  0  0  0  0  0  0  0  0  0  0  0
    2.5056    7.5402   -4.1713 C   0  0  0  0  0  0  0  0  0  0  0  0
    2.0119    7.1924   -2.9690 C   0  0  0  0  0  0  0  0  0  0  0  0
    1.9155    5.7606   -2.5365 C   0  0  0  0  0  0  0  0  0  0  0  0
    1.5776    8.2085   -1.9561 C   0  0  3  0  0  0  0  0  0  0  0  0
    2.4361    8.0812   -0.8343 O   0  0  0  0  0  0  0  0  0  0  0  0
    2.1252    8.8544    0.2375 C   0  0  0  0  0  0  0  0  0  0  0  0
    2.4897    8.5670    1.3668 O   0  0  0  0  0  0  0  0  0  0  0  0
    1.3696    9.9427   -0.0513 O   0  0  0  0  0  0  0  0  0  0  0  0
    1.4474   10.5522   -1.3368 C   0  0  3  0  0  0  0  0  0  0  0  0
    1.7952    9.5948   -2.4268 C   0  0  0  0  0  0  0  0  0  0  0  0
    2.2848    9.9048   -3.6561 C   0  0  0  0  0  0  0  0  0  0  0  0
    2.5956    8.8723   -4.5561 O   0  3  0  0  0  0  0  0  0  0  0  0
    3.1599    9.1110   -5.8553 O   0  0  0  0  0  0  0  0  0  0  0  0
    2.5275   11.3180   -4.0437 C   0  0  0  0  0  0  0  0  0  0  0  0
    3.7959   11.9324   -3.7655 O   0  0  0  0  0  0  0  0  0  0  0  0
    3.3973   11.6886   -5.1254 O   0  0  0  0  0  0  0  0  0  0  0  0
    0.1630   11.0287   -1.6883 O   0  0  0  0  0  0  0  0  0  0  0  0
    3.7551    4.3816   -5.6298 C   0  0  0  0  0  0  0  0  0  0  0  0
    5.1312    4.2525   -5.5325 C   0  0  0  0  0  0  0  0  0  0  0  0
    5.8420    3.4549   -6.3439 N   0  0  0  0  0  0  0  0  0  0  0  0
    5.1901    2.6945   -7.2749 N   0  0  0  0  0  0  0  0  0  0  0  0
    3.8613    2.7736   -7.4321 C   0  0  0  0  0  0  0  0  0  0  0  0
    3.0964    3.6626   -6.6517 C   0  0  0  0  0  0  0  0  0  0  0  0
    1.7236    3.7975   -6.9437 C   0  0  0  0  0  0  0  0  0  0  0  0
    1.1203    3.0132   -7.9346 C   0  0  0  0  0  0  0  0  0  0  0  0
    1.8475    2.0578   -8.6190 C   0  0  0  0  0  0  0  0  0  0  0  0
    3.2214    1.9707   -8.3787 C   0  0  0  0  0  0  0  0  0  0  0  0
    1.3348    1.2193   -9.5635 O   0  0  0  0  0  0  0  0  0  0  0  0
   -0.0886    1.0973   -9.6484 C   0  0  2  0  0  0  0  0  0  0  0  0
   -0.9517    2.2572   -9.1872 C   0  0  0  0  0  0  0  0  0  0  0  0
   -2.1379    2.3887   -9.4595 O   0  0  0  0  0  0  0  0  0  0  0  0
   -0.2707    3.2636   -8.2990 C   0  0  0  0  0  0  0  0  0  0  0  0
   -0.8405    4.2790   -7.9245 O   0  0  0  0  0  0  0  0  0  0  0  0
   -0.5375   -0.1724   -8.9884 C   0  0  1  0  0  0  0  0  0  0  0  0
   -0.2298   -0.3071   -7.5787 O   0  0  0  0  0  0  0  0  0  0  0  0
   -1.8443   -0.6079   -9.3771 O   0  0  0  0  0  0  0  0  0  0  0  0
   -0.8205   -1.4182   -9.7044 C   0  0  0  0  0  0  0  0  0  0  0  0
   -0.6180   -2.5664   -9.3894 O   0  0  0  0  0  0  0  0  0  0  0  0
    2.8486    1.5582   -1.5989 C   0  0  0  0  0  0  0  0  0  0  0  0
    3.4351    0.8282   -2.3863 O   0  0  0  0  0  0  0  0  0  0  0  0
    2.2166    0.9911   -0.3328 C   0  0  0  0  0  0  0  0  0  0  0  0
    1.9624   -0.1993   -0.2471 O   0  0  0  0  0  0  0  0  0  0  0  0
    1.9109    1.9233    0.8283 C   0  0  0  0  0  0  0  0  0  0  0  0
    1.7581    1.5484    1.9750 O   0  0  0  0  0  0  0  0  0  0  0  0
  1  2  1  0  0  0  0
  2  3  2  0  0  0  0
  3  4  1  0  0  0  0
  3 52  1  0  0  0  0
  4  5  1  0  0  0  0
  5  6  1  6  0  0  0
  5 48  1  0  0  0  0
  6  7  1  0  0  0  0
  7  8  2  0  0  0  0
  7 12  1  0  0  0  0
  8  9  1  0  0  0  0
  8 27  1  0  0  0  0
  9 10  1  0  0  0  0
 10 11  2  0  0  0  0
 10 21  1  0  0  0  0
 11 12  1  0  0  0  0
 11 13  1  0  0  0  0
 13 14  1  0  0  0  0
 13 19  1  0  0  0  0
 14 15  1  0  0  0  0
 15 16  2  0  0  0  0
 15 17  1  0  0  0  0
 17 18  1  0  0  0  0
 18 19  1  0  0  0  0
 18 26  1  0  0  0  0
 19 20  2  0  0  0  0
 20 21  1  0  0  0  0
 20 23  1  0  0  0  0
 21 22  1  0  0  0  0
 23 24  1  0  0  0  0
 23 25  1  0  0  0  0
 24 25  1  0  0  0  0
 27 28  2  0  0  0  0
 27 32  1  0  0  0  0
 28 29  1  0  0  0  0
 29 30  2  0  0  0  0
 30 31  1  0  0  0  0
 31 32  2  0  0  0  0
 31 36  1  0  0  0  0
 32 33  1  0  0  0  0
 33 34  2  0  0  0  0
 34 35  1  0  0  0  0
 34 41  1  0  0  0  0
 35 36  2  0  0  0  0
 35 37  1  0  0  0  0
 38 37  1  1  0  0  0
 38 39  1  0  0  0  0
 38 43  1  0  0  0  0
 39 40  2  0  0  0  0
 39 41  1  0  0  0  0
 41 42  2  0  0  0  0
 43 44  1  1  0  0  0
 43 45  1  0  0  0  0
 43 46  1  0  0  0  0
 45 46  1  0  0  0  0
 46 47  2  0  0  0  0
 48 49  2  0  0  0  0
 48 50  1  0  0  0  0
 50 51  2  0  0  0  0
 50 52  1  0  0  0  0
 52 53  2  0  0  0  0
M  CHG  1  21   1
M  END
$$$$