
 OpenBabel10222010113D

 62 71  0  0  1  0  0  0  0  0999 V2000
    6.7229   -2.5925   -3.6103 C   0  0  0  0  0  0  0  0  0  0  0  0
    5.9350   -1.7409   -2.6447 N   0  3  0  0  0  0  0  0  0  0  0  0
    4.7596   -2.1768   -2.1700 C   0  0  0  0  0  0  0  0  0  0  0  0
    4.0549   -1.4248   -1.2929 N   0  3  0  0  0  0  0  0  0  0  0  0
    2.5638   -2.1433   -0.8317 Cl  0  0  0  0  0  0  0  0  0  0  0  0
    4.5147   -0.1986   -0.8436 C   0  0  0  0  0  0  0  0  0  0  0  0
    5.7590    0.2661   -1.3488 N   0  3  0  0  0  0  0  0  0  0  0  0
    6.4281   -0.5385   -2.2424 N   0  0  0  0  0  0  0  0  0  0  0  0
    6.3370    1.5367   -0.9762 C   0  0  0  0  0  0  0  0  0  0  0  0
    7.5557    2.1053   -1.4411 C   0  0  0  0  0  0  0  0  0  0  0  0
    8.0270    3.3749   -1.1014 N   0  3  0  0  0  0  0  0  0  0  0  0
    9.2954    3.9602   -2.1212 Cl  0  0  0  0  0  0  0  0  0  0  0  0
    7.3507    4.2195   -0.1694 N   0  3  0  0  0  0  0  0  0  0  0  0
    6.1663    3.6817    0.3353 C   0  0  0  0  0  0  0  0  0  0  0  0
    5.6458    2.3457   -0.0819 C   0  0  0  0  0  0  0  0  0  0  0  0
    4.4868    1.8580    0.3745 N   0  0  0  0  0  0  0  0  0  0  0  0
    3.9190    0.6695    0.0462 N   0  3  0  0  0  0  0  0  0  0  0  0
    2.4364    0.3884    0.8571 Cl  0  0  0  0  0  0  0  0  0  0  0  0
    5.4583    4.3982    1.3168 N   0  0  0  0  0  0  0  0  0  0  0  0
    7.9452    5.6322    0.3800 C   0  0  0  0  0  0  0  0  0  0  0  0
    9.3239    5.6314    0.6583 C   0  0  0  0  0  0  0  0  0  0  0  0
   10.1459    4.4874    0.5377 N   0  0  0  0  0  0  0  0  0  0  0  0
    9.8623    6.8209    1.1316 C   0  0  0  0  0  0  0  0  0  0  0  0
    9.1670    7.9433    1.3337 N   0  0  0  0  0  0  0  0  0  0  0  0
    7.8657    8.0416    1.0743 N   0  3  0  0  0  0  0  0  0  0  0  0
    7.1364    6.9248    0.6094 C   0  0  0  0  0  0  0  0  0  0  0  0
    5.7362    7.2521    0.4089 C   0  0  0  0  0  0  0  0  0  0  0  0
    5.1637    8.5571    0.4881 C   0  0  0  0  0  0  0  0  0  0  0  0
    3.6776    8.7351    0.1906 C   0  0  0  0  0  0  0  0  0  0  0  0
    3.0544    7.8824   -0.7353 C   0  0  0  0  0  0  0  0  0  0  0  0
    1.6645    7.9022   -0.9879 C   0  0  0  0  0  0  0  0  0  0  0  0
    1.1179    6.5873   -1.9831 Cl  0  0  0  0  0  0  0  0  0  0  0  0
    0.8165    8.8984   -0.4707 C   0  0  0  0  0  0  0  0  0  0  0  0
    1.4315    9.8635    0.3761 C   0  0  0  0  0  0  0  0  0  0  0  0
    2.7923    9.6602    0.8002 C   0  0  0  0  0  0  0  0  0  0  0  0
    3.2762   10.3900    2.3104 Cl  0  0  0  0  0  0  0  0  0  0  0  0
    0.6515   10.9822    0.7365 C   0  0  0  0  0  0  0  0  0  0  0  0
   -0.7013   11.1406    0.3763 C   0  0  0  0  0  0  0  0  0  0  0  0
   -1.3546   10.0954   -0.2651 C   0  0  0  0  0  0  0  0  0  0  0  0
   -0.5874    9.0191   -0.7095 C   0  0  0  0  0  0  0  0  0  0  0  0
   -1.2097    8.0336   -1.3908 F   0  0  0  0  0  0  0  0  0  0  0  0
   -2.7058   10.1078   -0.5003 O   0  0  0  0  0  0  0  0  0  0  0  0
   -3.4758   11.0367    0.3318 C   0  0  3  0  0  0  0  0  0  0  0  0
   -2.8747   12.4479    0.1824 C   0  0  3  0  0  0  0  0  0  0  0  0
   -1.4247   12.4152    0.6961 C   0  0  3  0  0  0  0  0  0  0  0  0
   -1.3920   12.5543    2.1181 O   0  0  0  0  0  0  0  0  0  0  0  0
   -3.5536   13.4453    0.9449 O   0  0  0  0  0  0  0  0  0  0  0  0
   -4.9921   10.9125   -0.0436 C   0  0  3  0  0  0  0  0  0  0  0  0
   -5.2354   11.2510   -1.5306 C   0  0  0  0  0  0  0  0  0  0  0  0
   -6.6878   11.0332   -1.9481 C   0  0  0  0  0  0  0  0  0  0  0  0
   -7.6514   11.8106   -1.0624 C   0  0  0  0  0  0  0  0  0  0  0  0
   -7.4560   11.4490    0.4140 C   0  0  3  0  0  0  0  0  0  0  0  0
   -5.9930   11.7159    0.8548 C   0  0  3  0  0  0  0  0  0  0  0  0
   -5.8247   11.4301    2.3568 C   0  0  3  0  0  0  0  0  0  0  0  0
   -5.9171   10.0839    2.5526 F   0  0  0  0  0  0  0  0  0  0  0  0
   -6.8647   12.1310    3.2286 C   0  0  0  0  0  0  0  0  0  0  0  0
   -8.2911   11.8816    2.7549 C   0  0  0  0  0  0  0  0  0  0  0  0
   -8.4516   12.2327    1.2816 C   0  0  0  0  0  0  0  0  0  0  0  0
    6.0658    9.6124    0.7694 C   0  0  0  0  0  0  0  0  0  0  0  0
    7.3135    9.3057    1.2177 N   0  3  0  0  0  0  0  0  0  0  0  0
    8.2568   10.5247    2.0050 Cl  0  0  0  0  0  0  0  0  0  0  0  0
    5.7728   11.0619    0.4422 C   0  0  0  0  0  0  0  0  0  0  0  0
  1  2  1  0  0  0  0
  2  3  2  0  0  0  0
  2  8  1  0  0  0  0
  3  4  1  0  0  0  0
  4  5  1  0  0  0  0
  4  6  2  0  0  0  0
  6  7  1  0  0  0  0
  6 17  1  0  0  0  0
  7  8  2  0  0  0  0
  7  9  1  0  0  0  0
  9 10  2  0  0  0  0
  9 15  1  0  0  0  0
 10 11  1  0  0  0  0
 11 12  1  0  0  0  0
 11 13  2  0  0  0  0
 13 14  1  0  0  0  0
 13 20  1  0  0  0  0
 14 15  2  0  0  0  0
 14 19  1  0  0  0  0
 15 16  1  0  0  0  0
 16 17  2  0  0  0  0
 17 18  1  0  0  0  0
 20 21  2  0  0  0  0
 20 26  1  0  0  0  0
 21 22  1  0  0  0  0
 21 23  1  0  0  0  0
 23 24  2  0  0  0  0
 24 25  1  0  0  0  0
 25 26  2  0  0  0  0
 25 60  1  0  0  0  0
 26 27  1  0  0  0  0
 27 28  2  0  0  0  0
 28 29  1  0  0  0  0
 28 59  1  0  0  0  0
 29 30  2  0  0  0  0
 29 35  1  0  0  0  0
 30 31  1  0  0  0  0
 31 32  1  0  0  0  0
 31 33  2  0  0  0  0
 33 34  1  0  0  0  0
 33 40  1  0  0  0  0
 34 35  2  0  0  0  0
 34 37  1  0  0  0  0
 35 36  1  0  0  0  0
 37 38  2  0  0  0  0
 38 39  1  0  0  0  0
 38 45  1  0  0  0  0
 39 40  2  0  0  0  0
 39 42  1  0  0  0  0
 40 41  1  0  0  0  0
 42 43  1  0  0  0  0
 43 44  1  0  0  0  0
 43 48  1  0  0  0  0
 44 45  1  0  0  0  0
 44 47  1  0  0  0  0
 45 46  1  0  0  0  0
 48 49  1  0  0  0  0
 48 53  1  0  0  0  0
 49 50  1  0  0  0  0
 50 51  1  0  0  0  0
 51 52  1  0  0  0  0
 52 53  1  0  0  0  0
 52 58  1  0  0  0  0
 53 54  1  0  0  0  0
 54 55  1  0  0  0  0
 54 56  1  0  0  0  0
 56 57  1  0  0  0  0
 57 58  1  0  0  0  0
 59 60  2  0  0  0  0
 59 62  1  0  0  0  0
 60 61  1  0  0  0  0
M  CHG  8   2   1   4   1   7   1  11   1  13   1  17   1  25   1  60   1
M  END
$$$$