
 OpenBabel11222023523D

 53 62  0  0  1  0  0  0  0  0999 V2000
    1.6002  -11.2235   -5.5000 O   0  0  0  0  0  0  0  0  0  0  0  0
    0.3061  -10.8118   -5.7009 C   0  0  0  0  0  0  0  0  0  0  0  0
   -0.0072   -9.5651   -6.0709 C   0  0  0  0  0  0  0  0  0  0  0  0
    0.9803   -8.6051   -6.2446 O   0  0  0  0  0  0  0  0  0  0  0  0
    0.6992   -7.7294   -7.3258 C   0  0  2  0  0  0  0  0  0  0  0  0
    1.7270   -6.7290   -7.4711 O   0  0  0  0  0  0  0  0  0  0  0  0
    3.0410   -7.0915   -7.6627 C   0  0  0  0  0  0  0  0  0  0  0  0
    4.0407   -6.2930   -7.2227 C   0  0  0  0  0  0  0  0  0  0  0  0
    5.3812   -6.6407   -7.4329 O   0  0  0  0  0  0  0  0  0  0  0  0
    5.7219   -7.8607   -8.0240 C   0  0  0  0  0  0  0  0  0  0  0  0
    4.7839   -8.6531   -8.5784 C   0  0  0  0  0  0  0  0  0  0  0  0
    3.3208   -8.3349   -8.4703 C   0  0  0  0  0  0  0  0  0  0  0  0
    5.1436   -9.9353   -9.2867 C   0  0  3  0  0  0  0  0  0  0  0  0
    4.8947   -9.7580  -10.6935 N   0  0  0  0  0  0  0  0  0  0  0  0
    5.4684  -10.5491  -11.6328 C   0  0  0  0  0  0  0  0  0  0  0  0
    5.0298  -10.6670  -12.8299 N   0  0  0  0  0  0  0  0  0  0  0  0
    6.5748  -11.2206  -11.2596 N   0  0  0  0  0  0  0  0  0  0  0  0
    6.9522  -11.4982   -9.9073 C   0  0  0  0  0  0  0  0  0  0  0  0
    6.6018  -10.2604   -9.1345 C   0  0  0  0  0  0  0  0  0  0  0  0
    7.4764   -9.4399   -8.5119 C   0  0  0  0  0  0  0  0  0  0  0  0
    7.0525   -8.2216   -8.0067 O   0  3  0  0  0  0  0  0  0  0  0  0
    8.9282   -9.7122   -8.3911 C   0  0  0  0  0  0  0  0  0  0  0  0
    9.8639   -9.1701   -9.3294 O   0  0  0  0  0  0  0  0  0  0  0  0
    9.8292   -8.6681   -7.9796 O   0  0  0  0  0  0  0  0  0  0  0  0
    3.8141   -4.9794   -6.5026 C   0  0  0  0  0  0  0  0  0  0  0  0
    2.6873   -4.2082   -6.8183 C   0  0  0  0  0  0  0  0  0  0  0  0
    2.4238   -3.0567   -6.1930 N   0  3  0  0  0  0  0  0  0  0  0  0
    1.2933   -2.3903   -6.5000 F   0  0  0  0  0  0  0  0  0  0  0  0
    3.2337   -2.5366   -5.2945 N   0  0  0  0  0  0  0  0  0  0  0  0
    4.3615   -3.1703   -4.9732 C   0  0  0  0  0  0  0  0  0  0  0  0
    4.6994   -4.4222   -5.5365 C   0  0  0  0  0  0  0  0  0  0  0  0
    5.9088   -5.0140   -5.1003 C   0  0  0  0  0  0  0  0  0  0  0  0
    6.7844   -4.3604   -4.2227 C   0  0  0  0  0  0  0  0  0  0  0  0
    6.4517   -3.1394   -3.6857 C   0  0  0  0  0  0  0  0  0  0  0  0
    5.2387   -2.5657   -4.0620 C   0  0  0  0  0  0  0  0  0  0  0  0
    4.9059   -1.3716   -3.5480 F   0  0  0  0  0  0  0  0  0  0  0  0
    7.2976   -2.4471   -2.8660 O   0  0  0  0  0  0  0  0  0  0  0  0
    8.2134   -3.2622   -2.0839 C   0  0  1  0  0  0  0  0  0  0  0  0
    8.8807   -4.3936   -2.7646 C   0  0  0  0  0  0  0  0  0  0  0  0
    9.8850   -4.9526   -2.3591 O   0  0  0  0  0  0  0  0  0  0  0  0
    8.0929   -4.9488   -3.9335 C   0  0  0  0  0  0  0  0  0  0  0  0
    8.4899   -5.8736   -4.6315 O   0  0  0  0  0  0  0  0  0  0  0  0
    8.9993   -2.5564   -1.1583 O   0  0  0  0  0  0  0  0  0  0  0  0
    7.9666   -3.4321   -0.6123 C   0  0  1  0  0  0  0  0  0  0  0  0
    6.6341   -2.8743   -0.3500 O   0  0  0  0  0  0  0  0  0  0  0  0
    7.5235   -2.8178    0.6175 C   0  0  0  0  0  0  0  0  0  0  0  0
    7.4731   -3.2160    1.7557 O   0  0  0  0  0  0  0  0  0  0  0  0
   -0.5489   -6.9109   -7.0470 C   0  0  0  0  0  0  0  0  0  0  0  0
   -0.6370   -5.7002   -7.2208 O   0  0  0  0  0  0  0  0  0  0  0  0
   -1.6776   -7.7384   -6.4789 C   0  0  0  0  0  0  0  0  0  0  0  0
   -2.7219   -7.2057   -6.1492 O   0  0  0  0  0  0  0  0  0  0  0  0
   -1.4461   -9.2233   -6.2767 C   0  0  0  0  0  0  0  0  0  0  0  0
   -2.3450  -10.0391   -6.3536 O   0  0  0  0  0  0  0  0  0  0  0  0
  1  2  1  0  0  0  0
  2  3  2  0  0  0  0
  3  4  1  0  0  0  0
  3 52  1  0  0  0  0
  4  5  1  0  0  0  0
  5  6  1  1  0  0  0
  5 48  1  0  0  0  0
  6  7  1  0  0  0  0
  7  8  2  0  0  0  0
  7 12  1  0  0  0  0
  8  9  1  0  0  0  0
  8 25  1  0  0  0  0
  9 10  1  0  0  0  0
 10 11  2  0  0  0  0
 10 21  1  0  0  0  0
 11 12  1  0  0  0  0
 11 13  1  0  0  0  0
 13 14  1  0  0  0  0
 13 19  1  0  0  0  0
 14 15  1  0  0  0  0
 15 16  2  0  0  0  0
 15 17  1  0  0  0  0
 17 18  1  0  0  0  0
 18 19  1  0  0  0  0
 19 20  2  0  0  0  0
 20 21  1  0  0  0  0
 20 22  1  0  0  0  0
 22 23  1  0  0  0  0
 22 24  1  0  0  0  0
 23 24  1  0  0  0  0
 25 26  2  0  0  0  0
 25 31  1  0  0  0  0
 26 27  1  0  0  0  0
 27 28  1  0  0  0  0
 27 29  2  0  0  0  0
 29 30  1  0  0  0  0
 30 31  2  0  0  0  0
 30 35  1  0  0  0  0
 31 32  1  0  0  0  0
 32 33  2  0  0  0  0
 33 34  1  0  0  0  0
 33 41  1  0  0  0  0
 34 35  2  0  0  0  0
 34 37  1  0  0  0  0
 35 36  1  0  0  0  0
 38 37  1  6  0  0  0
 38 39  1  0  0  0  0
 38 43  1  0  0  0  0
 38 44  1  0  0  0  0
 39 40  2  0  0  0  0
 39 41  1  0  0  0  0
 41 42  2  0  0  0  0
 44 43  1  6  0  0  0
 44 45  1  0  0  0  0
 44 46  1  0  0  0  0
 45 46  1  0  0  0  0
 46 47  2  0  0  0  0
 48 49  2  0  0  0  0
 48 50  1  0  0  0  0
 50 51  2  0  0  0  0
 50 52  1  0  0  0  0
 52 53  2  0  0  0  0
M  CHG  2  21   1  27   1
M  END
$$$$