
 OpenBabel09242018543D

 51 59  0  0  1  0  0  0  0  0999 V2000
    9.3152   -5.8461    6.7318 O   0  0  0  0  0  0  0  0  0  0  0  0
    8.5411   -6.9632    6.9114 C   0  0  0  0  0  0  0  0  0  0  0  0
    7.4244   -7.1944    6.2105 C   0  0  0  0  0  0  0  0  0  0  0  0
    6.9617   -6.2893    5.2718 O   0  0  0  0  0  0  0  0  0  0  0  0
    6.5287   -6.9219    4.0651 C   0  0  2  0  0  0  0  0  0  0  0  0
    6.2628   -5.9661    3.0264 O   0  0  0  0  0  0  0  0  0  0  0  0
    7.3283   -5.1547    2.6490 C   0  0  0  0  0  0  0  0  0  0  0  0
    7.1161   -3.9017    2.1845 C   0  0  0  0  0  0  0  0  0  0  0  0
    8.1741   -3.0532    1.8248 O   0  0  0  0  0  0  0  0  0  0  0  0
    9.4845   -3.4723    1.9928 C   0  0  0  0  0  0  0  0  0  0  0  0
    9.7737   -4.7234    2.3764 C   0  0  0  0  0  0  0  0  0  0  0  0
    8.7272   -5.7260    2.7031 C   0  0  0  0  0  0  0  0  0  0  0  0
   11.2032   -5.0979    2.5443 C   0  0  0  0  0  0  0  0  0  0  0  0
   11.5365   -6.3007    2.8816 N   0  0  0  0  0  0  0  0  0  0  0  0
   12.8720   -6.6056    3.0541 C   0  0  0  0  0  0  0  0  0  0  0  0
   13.1617   -7.7458    3.3928 O   0  0  0  0  0  0  0  0  0  0  0  0
   13.8925   -5.6941    2.8701 N   0  0  0  0  0  0  0  0  0  0  0  0
   13.5889   -4.4885    2.5332 C   0  0  0  0  0  0  0  0  0  0  0  0
   12.2126   -4.0404    2.3234 C   0  0  0  0  0  0  0  0  0  0  0  0
   11.8235   -2.8009    1.9631 C   0  0  0  0  0  0  0  0  0  0  0  0
   10.4734   -2.5475    1.7575 N   0  0  0  0  0  0  0  0  0  0  0  0
   12.7416   -1.6575    1.7587 C   0  0  0  0  0  0  0  0  0  0  0  0
   12.6231   -0.4519    2.5330 O   0  0  0  0  0  0  0  0  0  0  0  0
   13.7630   -1.3111    2.7103 O   0  0  0  0  0  0  0  0  0  0  0  0
    5.7384   -3.2713    1.9915 C   0  0  1  0  0  0  0  0  0  0  0  0
    5.6674   -2.0590    2.8445 N   0  0  0  0  0  0  0  0  0  0  0  0
    5.5821   -0.9341    2.2321 C   0  0  0  0  0  0  0  0  0  0  0  0
    5.5244   -0.7058    0.8976 N   0  0  0  0  0  0  0  0  0  0  0  0
    5.3810   -1.7637    0.0152 C   0  0  0  0  0  0  0  0  0  0  0  0
    5.4337   -3.0610    0.5163 C   0  0  0  0  0  0  0  0  0  0  0  0
    5.2183   -4.1193   -0.3714 C   0  0  0  0  0  0  0  0  0  0  0  0
    5.0052   -3.8348   -1.7199 C   0  0  0  0  0  0  0  0  0  0  0  0
    5.0255   -2.5164   -2.1427 C   0  0  0  0  0  0  0  0  0  0  0  0
    5.1854   -1.4815   -1.2916 N   0  0  0  0  0  0  0  0  0  0  0  0
    4.8856   -2.1238   -3.4436 O   0  0  0  0  0  0  0  0  0  0  0  0
    5.1043   -3.1194   -4.4463 C   0  0  2  0  0  0  0  0  0  0  0  0
    4.5136   -4.4625   -4.1127 C   0  0  0  0  0  0  0  0  0  0  0  0
    3.9123   -5.1797   -4.8976 O   0  0  0  0  0  0  0  0  0  0  0  0
    4.7774   -4.9007   -2.6944 C   0  0  0  0  0  0  0  0  0  0  0  0
    4.8230   -6.0825   -2.3958 O   0  0  0  0  0  0  0  0  0  0  0  0
    6.5643   -3.2295   -4.7862 C   0  0  1  0  0  0  0  0  0  0  0  0
    7.4678   -3.5826   -3.7170 O   0  0  0  0  0  0  0  0  0  0  0  0
    6.8758   -3.8697   -6.0275 O   0  0  0  0  0  0  0  0  0  0  0  0
    7.1019   -2.5446   -5.9550 C   0  0  0  0  0  0  0  0  0  0  0  0
    6.6826   -1.6440   -6.6445 O   0  0  0  0  0  0  0  0  0  0  0  0
    5.2865   -7.7477    4.3613 C   0  0  0  0  0  0  0  0  0  0  0  0
    4.2656   -7.7841    3.6906 O   0  0  0  0  0  0  0  0  0  0  0  0
    5.4567   -8.6312    5.5786 C   0  0  0  0  0  0  0  0  0  0  0  0
    4.6341   -9.4971    5.8345 O   0  0  0  0  0  0  0  0  0  0  0  0
    6.6808   -8.4599    6.4583 C   0  0  0  0  0  0  0  0  0  0  0  0
    7.0302   -9.3161    7.2537 O   0  0  0  0  0  0  0  0  0  0  0  0
  1  2  1  0  0  0  0
  2  3  2  0  0  0  0
  3  4  1  0  0  0  0
  3 50  1  0  0  0  0
  4  5  1  0  0  0  0
  5  6  1  6  0  0  0
  5 46  1  0  0  0  0
  6  7  1  0  0  0  0
  7  8  2  0  0  0  0
  7 12  1  0  0  0  0
  8  9  1  0  0  0  0
  9 10  1  0  0  0  0
 10 11  2  0  0  0  0
 10 21  1  0  0  0  0
 11 12  1  0  0  0  0
 11 13  1  0  0  0  0
 13 14  2  0  0  0  0
 13 19  1  0  0  0  0
 14 15  1  0  0  0  0
 15 16  2  0  0  0  0
 15 17  1  0  0  0  0
 17 18  2  0  0  0  0
 18 19  1  0  0  0  0
 19 20  2  0  0  0  0
 20 21  1  0  0  0  0
 20 22  1  0  0  0  0
 22 23  1  0  0  0  0
 22 24  1  0  0  0  0
 23 24  1  0  0  0  0
 25 26  1  0  0  0  0
 25 30  1  0  0  0  0
 25  8  1  6  0  0  0
 26 27  2  0  0  0  0
 27 28  1  0  0  0  0
 28 29  1  0  0  0  0
 29 30  2  0  0  0  0
 29 34  1  0  0  0  0
 30 31  1  0  0  0  0
 31 32  2  0  0  0  0
 32 33  1  0  0  0  0
 32 39  1  0  0  0  0
 33 34  2  0  0  0  0
 33 35  1  0  0  0  0
 36 35  1  1  0  0  0
 36 37  1  0  0  0  0
 36 41  1  0  0  0  0
 37 38  2  0  0  0  0
 37 39  1  0  0  0  0
 39 40  2  0  0  0  0
 41 42  1  1  0  0  0
 41 43  1  0  0  0  0
 41 44  1  0  0  0  0
 43 44  1  0  0  0  0
 44 45  2  0  0  0  0
 46 47  2  0  0  0  0
 46 48  1  0  0  0  0
 48 49  2  0  0  0  0
 48 50  1  0  0  0  0
 50 51  2  0  0  0  0
M  END
$$$$