
 OpenBabel11212021453D

 54 62  0  0  1  0  0  0  0  0999 V2000
    2.4411    7.9932   -3.3355 O   0  0  0  0  0  0  0  0  0  0  0  0
    2.4643    6.8097   -4.0319 C   0  0  0  0  0  0  0  0  0  0  0  0
    2.6713    5.6280   -3.4380 C   0  0  0  0  0  0  0  0  0  0  0  0
    2.9592    5.5518   -2.0878 O   0  0  0  0  0  0  0  0  0  0  0  0
    2.2489    4.5299   -1.3952 C   0  0  2  0  0  0  0  0  0  0  0  0
    2.5949    4.5320    0.0127 O   0  0  0  0  0  0  0  0  0  0  0  0
    2.4142    5.7021    0.7465 C   0  0  0  0  0  0  0  0  0  0  0  0
    3.1764    5.9865    1.8301 C   0  0  0  0  0  0  0  0  0  0  0  0
    3.0585    7.1755    2.5526 O   0  0  0  0  0  0  0  0  0  0  0  0
    2.1155    8.1234    2.1697 C   0  0  0  0  0  0  0  0  0  0  0  0
    1.2383    7.8821    1.1804 C   0  0  0  0  0  0  0  0  0  0  0  0
    1.2856    6.6252    0.3626 C   0  0  0  0  0  0  0  0  0  0  0  0
    0.2020    8.8867    0.7705 C   0  0  3  0  0  0  0  0  0  0  0  0
   -1.0742    8.3172    1.0293 O   0  0  0  0  0  0  0  0  0  0  0  0
   -2.1522    9.1075    0.8657 C   0  0  0  0  0  0  0  0  0  0  0  0
   -3.3194    8.5912    0.8041 N   0  0  0  0  0  0  0  0  0  0  0  0
   -1.9819   10.4394    0.8024 O   0  0  0  0  0  0  0  0  0  0  0  0
   -0.7431   11.0891    1.0690 C   0  0  3  0  0  0  0  0  0  0  0  0
    0.2985   10.1437    1.5546 C   0  0  0  0  0  0  0  0  0  0  0  0
    1.2165   10.3310    2.5311 C   0  0  0  0  0  0  0  0  0  0  0  0
    2.1222    9.3228    2.8392 O   0  3  0  0  0  0  0  0  0  0  0  0
    1.3632   11.5813    3.3172 C   0  0  0  0  0  0  0  0  0  0  0  0
    2.3971   11.6953    4.3141 O   0  0  0  0  0  0  0  0  0  0  0  0
    2.4706   12.4662    3.1006 O   0  0  0  0  0  0  0  0  0  0  0  0
   -0.2402   11.6413   -0.1311 O   0  0  0  0  0  0  0  0  0  0  0  0
    4.1792    5.0470    2.3872 C   0  0  0  0  0  0  0  0  0  0  0  0
    3.6943    4.2631    3.3827 N   0  0  0  0  0  0  0  0  0  0  0  0
    4.5010    3.2837    3.8433 C   0  0  0  0  0  0  0  0  0  0  0  0
    4.0129    2.4697    4.7898 F   0  0  0  0  0  0  0  0  0  0  0  0
    5.7846    3.0602    3.3889 C   0  0  0  0  0  0  0  0  0  0  0  0
    6.3079    3.9058    2.4071 C   0  0  0  0  0  0  0  0  0  0  0  0
    5.5068    4.9533    1.9002 C   0  0  0  0  0  0  0  0  0  0  0  0
    6.0926    5.8236    0.9533 C   0  0  0  0  0  0  0  0  0  0  0  0
    7.4210    5.6463    0.5240 C   0  0  0  0  0  0  0  0  0  0  0  0
    8.0264    6.6339   -0.3689 C   0  0  0  0  0  0  0  0  0  0  0  0
    7.3841    7.5779   -0.8021 O   0  0  0  0  0  0  0  0  0  0  0  0
    9.4959    6.4738   -0.6629 C   0  0  0  0  0  0  0  0  0  0  0  0
   10.1655    7.4429   -0.9910 O   0  0  0  0  0  0  0  0  0  0  0  0
   10.0163    5.0610   -0.5297 C   0  0  1  0  0  0  0  0  0  0  0  0
    9.4519    4.2936    0.5446 O   0  0  0  0  0  0  0  0  0  0  0  0
    8.1816    4.5754    0.9628 C   0  0  0  0  0  0  0  0  0  0  0  0
    7.6119    3.7163    1.9051 C   0  0  0  0  0  0  0  0  0  0  0  0
    8.3311    2.6704    2.3451 F   0  0  0  0  0  0  0  0  0  0  0  0
    9.9639    4.3481   -1.8585 C   0  0  1  0  0  0  0  0  0  0  0  0
   10.7189    4.9419   -2.9333 O   0  0  0  0  0  0  0  0  0  0  0  0
    9.9790    2.9170   -1.8279 O   0  0  0  0  0  0  0  0  0  0  0  0
    8.8491    3.5045   -2.2444 C   0  0  0  0  0  0  0  0  0  0  0  0
    7.7010    3.4586   -1.8407 O   0  0  0  0  0  0  0  0  0  0  0  0
    2.5328    3.1416   -1.9706 C   0  0  0  0  0  0  0  0  0  0  0  0
    2.4995    2.0991   -1.3311 O   0  0  0  0  0  0  0  0  0  0  0  0
    2.7855    3.1222   -3.4662 C   0  0  0  0  0  0  0  0  0  0  0  0
    3.0847    2.0785   -4.0265 O   0  0  0  0  0  0  0  0  0  0  0  0
    2.6645    4.3975   -4.2728 C   0  0  0  0  0  0  0  0  0  0  0  0
    2.5516    4.3947   -5.4870 O   0  0  0  0  0  0  0  0  0  0  0  0
  1  2  1  0  0  0  0
  2  3  2  0  0  0  0
  3  4  1  0  0  0  0
  3 53  1  0  0  0  0
  4  5  1  0  0  0  0
  5  6  1  1  0  0  0
  5 49  1  0  0  0  0
  6  7  1  0  0  0  0
  7  8  2  0  0  0  0
  7 12  1  0  0  0  0
  8  9  1  0  0  0  0
  8 26  1  0  0  0  0
  9 10  1  0  0  0  0
 10 11  2  0  0  0  0
 10 21  1  0  0  0  0
 11 12  1  0  0  0  0
 11 13  1  0  0  0  0
 13 14  1  0  0  0  0
 13 19  1  0  0  0  0
 14 15  1  0  0  0  0
 15 16  2  0  0  0  0
 15 17  1  0  0  0  0
 17 18  1  0  0  0  0
 18 19  1  0  0  0  0
 18 25  1  0  0  0  0
 19 20  2  0  0  0  0
 20 21  1  0  0  0  0
 20 22  1  0  0  0  0
 22 23  1  0  0  0  0
 22 24  1  0  0  0  0
 23 24  1  0  0  0  0
 26 27  2  0  0  0  0
 26 32  1  0  0  0  0
 27 28  1  0  0  0  0
 28 29  1  0  0  0  0
 28 30  2  0  0  0  0
 30 31  1  0  0  0  0
 31 32  2  0  0  0  0
 31 42  1  0  0  0  0
 32 33  1  0  0  0  0
 33 34  2  0  0  0  0
 34 35  1  0  0  0  0
 34 41  1  0  0  0  0
 35 36  2  0  0  0  0
 35 37  1  0  0  0  0
 37 38  2  0  0  0  0
 39 37  1  6  0  0  0
 39 40  1  0  0  0  0
 39 44  1  0  0  0  0
 40 41  1  0  0  0  0
 41 42  2  0  0  0  0
 42 43  1  0  0  0  0
 44 45  1  6  0  0  0
 44 46  1  0  0  0  0
 44 47  1  0  0  0  0
 46 47  1  0  0  0  0
 47 48  2  0  0  0  0
 49 50  2  0  0  0  0
 49 51  1  0  0  0  0
 51 52  2  0  0  0  0
 51 53  1  0  0  0  0
 53 54  2  0  0  0  0
M  CHG  1  21   1
M  END
$$$$