
 OpenBabel11142012073D

 51 59  0  0  1  0  0  0  0  0999 V2000
   -1.0806   -0.5153   -3.8670 O   0  0  0  0  0  0  0  0  0  0  0  0
   -0.2629    0.2045   -3.0342 C   0  0  0  0  0  0  0  0  0  0  0  0
    0.8821   -0.2888   -2.5478 C   0  0  0  0  0  0  0  0  0  0  0  0
    1.2554   -1.5833   -2.8452 O   0  0  0  0  0  0  0  0  0  0  0  0
    2.6530   -1.8330   -2.7794 C   0  0  2  0  0  0  0  0  0  0  0  0
    2.9308   -3.1975   -3.0933 O   0  0  0  0  0  0  0  0  0  0  0  0
    2.5991   -3.6250   -4.3748 C   0  0  0  0  0  0  0  0  0  0  0  0
    2.2715   -4.9132   -4.6090 C   0  0  0  0  0  0  0  0  0  0  0  0
    2.0004   -5.4168   -5.8730 O   0  0  0  0  0  0  0  0  0  0  0  0
    2.2354   -4.6116   -6.9743 C   0  0  0  0  0  0  0  0  0  0  0  0
    2.5784   -3.3164   -6.8600 C   0  0  0  0  0  0  0  0  0  0  0  0
    2.7037   -2.6535   -5.5248 C   0  0  0  0  0  0  0  0  0  0  0  0
    2.8421   -2.4877   -8.0922 C   0  0  3  0  0  0  0  0  0  0  0  0
    4.1316   -1.8940   -7.9626 O   0  0  0  0  0  0  0  0  0  0  0  0
    4.4856   -1.0312   -8.9494 C   0  0  0  0  0  0  0  0  0  0  0  0
    5.3178   -0.1532   -8.7768 O   0  0  0  0  0  0  0  0  0  0  0  0
    3.8103   -1.1825  -10.1193 O   0  0  0  0  0  0  0  0  0  0  0  0
    3.3647   -2.4901  -10.5133 C   0  0  0  0  0  0  0  0  0  0  0  0
    2.8578   -3.2760   -9.3606 C   0  0  0  0  0  0  0  0  0  0  0  0
    2.5016   -4.5794   -9.3929 C   0  0  0  0  0  0  0  0  0  0  0  0
    2.1293   -5.1950   -8.2104 N   0  0  0  0  0  0  0  0  0  0  0  0
    2.5119   -5.4232  -10.6077 C   0  0  0  0  0  0  0  0  0  0  0  0
    1.5522   -6.4734  -10.8142 O   0  0  0  0  0  0  0  0  0  0  0  0
    1.5141   -5.2867  -11.6310 O   0  0  0  0  0  0  0  0  0  0  0  0
    2.1753   -5.9050   -3.5299 C   0  0  0  0  0  0  0  0  0  0  0  0
    3.3036   -6.6102   -3.3062 N   0  0  0  0  0  0  0  0  0  0  0  0
    3.3440   -7.4357   -2.2999 N   0  0  0  0  0  0  0  0  0  0  0  0
    2.3347   -7.5768   -1.4708 N   0  0  0  0  0  0  0  0  0  0  0  0
    1.1975   -6.8997   -1.6628 C   0  0  0  0  0  0  0  0  0  0  0  0
    1.0354   -6.0414   -2.7441 C   0  0  0  0  0  0  0  0  0  0  0  0
   -0.2038   -5.3808   -2.9495 C   0  0  0  0  0  0  0  0  0  0  0  0
   -1.2303   -5.5260   -2.0187 C   0  0  0  0  0  0  0  0  0  0  0  0
   -1.0435   -6.3198   -0.8993 C   0  0  0  0  0  0  0  0  0  0  0  0
    0.1500   -7.0296   -0.7523 C   0  0  0  0  0  0  0  0  0  0  0  0
   -1.9869   -6.4802    0.0732 O   0  0  0  0  0  0  0  0  0  0  0  0
   -2.8500   -5.3539    0.2804 C   0  0  2  0  0  0  0  0  0  0  0  0
   -3.3806   -4.6893   -0.9697 C   0  0  0  0  0  0  0  0  0  0  0  0
   -4.3514   -3.9432   -0.9731 O   0  0  0  0  0  0  0  0  0  0  0  0
   -2.5073   -4.8305   -2.1954 C   0  0  0  0  0  0  0  0  0  0  0  0
   -2.8362   -4.3413   -3.2636 O   0  0  0  0  0  0  0  0  0  0  0  0
   -2.2173   -4.3679    1.2233 C   0  0  1  0  0  0  0  0  0  0  0  0
   -1.8529   -4.8884    2.5247 O   0  0  0  0  0  0  0  0  0  0  0  0
   -1.2709   -3.4868    0.6153 O   0  0  0  0  0  0  0  0  0  0  0  0
   -2.3682   -2.9123    1.1546 C   0  0  0  0  0  0  0  0  0  0  0  0
   -2.4337   -2.0854    2.0374 O   0  0  0  0  0  0  0  0  0  0  0  0
    3.1351   -1.4847   -1.3725 C   0  0  0  0  0  0  0  0  0  0  0  0
    3.7310   -2.2726   -0.6387 O   0  0  0  0  0  0  0  0  0  0  0  0
    2.9301   -0.0356   -1.0103 C   0  0  3  0  0  0  0  0  0  0  0  0
    1.7039    0.5803   -1.6446 C   0  0  0  0  0  0  0  0  0  0  0  0
    1.3985    1.7584   -1.4578 O   0  0  0  0  0  0  0  0  0  0  0  0
    2.9327    0.1564    0.3430 F   0  0  0  0  0  0  0  0  0  0  0  0
  1  2  1  0  0  0  0
  2  3  2  0  0  0  0
  3  4  1  0  0  0  0
  3 49  1  0  0  0  0
  4  5  1  0  0  0  0
  5  6  1  1  0  0  0
  5 46  1  0  0  0  0
  6  7  1  0  0  0  0
  7  8  2  0  0  0  0
  7 12  1  0  0  0  0
  8  9  1  0  0  0  0
  8 25  1  0  0  0  0
  9 10  1  0  0  0  0
 10 11  2  0  0  0  0
 10 21  1  0  0  0  0
 11 12  1  0  0  0  0
 11 13  1  0  0  0  0
 13 14  1  0  0  0  0
 13 19  1  0  0  0  0
 14 15  1  0  0  0  0
 15 16  2  0  0  0  0
 15 17  1  0  0  0  0
 17 18  1  0  0  0  0
 18 19  1  0  0  0  0
 19 20  2  0  0  0  0
 20 21  1  0  0  0  0
 20 22  1  0  0  0  0
 22 23  1  0  0  0  0
 22 24  1  0  0  0  0
 23 24  1  0  0  0  0
 25 26  2  0  0  0  0
 25 30  1  0  0  0  0
 26 27  1  0  0  0  0
 27 28  2  0  0  0  0
 28 29  1  0  0  0  0
 29 30  2  0  0  0  0
 29 34  1  0  0  0  0
 30 31  1  0  0  0  0
 31 32  2  0  0  0  0
 32 33  1  0  0  0  0
 32 39  1  0  0  0  0
 33 34  2  0  0  0  0
 33 35  1  0  0  0  0
 36 35  1  6  0  0  0
 36 37  1  0  0  0  0
 36 41  1  0  0  0  0
 37 38  2  0  0  0  0
 37 39  1  0  0  0  0
 39 40  2  0  0  0  0
 41 42  1  1  0  0  0
 41 43  1  0  0  0  0
 41 44  1  0  0  0  0
 43 44  1  0  0  0  0
 44 45  2  0  0  0  0
 46 47  2  0  0  0  0
 46 48  1  0  0  0  0
 48 49  1  0  0  0  0
 48 51  1  0  0  0  0
 49 50  2  0  0  0  0
M  END
$$$$