
 OpenBabel11262000253D

 54 62  0  0  1  0  0  0  0  0999 V2000
    2.8516    6.2593   -4.8192 O   0  0  0  0  0  0  0  0  0  0  0  0
    2.4876    4.9420   -4.9654 C   0  0  0  0  0  0  0  0  0  0  0  0
    2.5620    4.0571   -3.9652 C   0  0  0  0  0  0  0  0  0  0  0  0
    3.0539    4.4285   -2.7245 O   0  0  0  0  0  0  0  0  0  0  0  0
    2.2139    3.9194   -1.7016 C   0  0  2  0  0  0  0  0  0  0  0  0
    2.6611    4.3985   -0.4048 O   0  0  0  0  0  0  0  0  0  0  0  0
    2.7298    5.7655   -0.2005 C   0  0  0  0  0  0  0  0  0  0  0  0
    3.6023    6.2562    0.7007 C   0  0  0  0  0  0  0  0  0  0  0  0
    3.7344    7.6233    0.9637 O   0  0  0  0  0  0  0  0  0  0  0  0
    2.8963    8.5412    0.3011 C   0  0  0  0  0  0  0  0  0  0  0  0
    1.9564    8.1216   -0.5716 C   0  0  0  0  0  0  0  0  0  0  0  0
    1.7841    6.6753   -0.9474 C   0  0  0  0  0  0  0  0  0  0  0  0
    1.0380    9.0932   -1.2798 C   0  0  3  0  0  0  0  0  0  0  0  0
   -0.2935    8.7981   -0.9037 O   0  0  0  0  0  0  0  0  0  0  0  0
   -1.2335    9.6842   -1.3120 C   0  0  0  0  0  0  0  0  0  0  0  0
   -2.4670    9.3672   -1.2300 N   0  0  0  0  0  0  0  0  0  0  0  0
   -0.8506   10.8854   -1.7962 O   0  0  0  0  0  0  0  0  0  0  0  0
    0.3793   11.3815   -1.5616 C   0  0  0  0  0  0  0  0  0  0  0  0
    0.7569   12.4775   -1.9442 O   0  0  0  0  0  0  0  0  0  0  0  0
    1.3005   10.4815   -0.8681 C   0  0  0  0  0  0  0  0  0  0  0  0
    2.2708   10.8581   -0.0074 C   0  0  0  0  0  0  0  0  0  0  0  0
    3.0719    9.8858    0.5688 O   0  3  0  0  0  0  0  0  0  0  0  0
    2.5742   12.2630    0.3586 C   0  0  0  0  0  0  0  0  0  0  0  0
    1.8567   12.9149    1.5113 C   0  0  0  0  0  0  0  0  0  0  0  0
    3.3209   12.6121    1.6288 C   0  0  0  0  0  0  0  0  0  0  0  0
    4.4824    5.3479    1.4892 C   0  0  0  0  0  0  0  0  0  0  0  0
    4.0164    4.8419    2.7094 C   0  0  0  0  0  0  0  0  0  0  0  0
    4.7920    4.0304    3.4346 N   0  3  0  0  0  0  0  0  0  0  0  0
    4.3452    3.5744    4.6237 F   0  0  0  0  0  0  0  0  0  0  0  0
    6.0024    3.6846    3.0426 N   0  0  0  0  0  0  0  0  0  0  0  0
    6.4713    4.1401    1.8642 C   0  0  0  0  0  0  0  0  0  0  0  0
    5.7277    4.9808    1.0458 N   0  3  0  0  0  0  0  0  0  0  0  0
    6.2559    5.4032   -0.1385 C   0  0  0  0  0  0  0  0  0  0  0  0
    7.5489    5.0607   -0.5231 C   0  0  0  0  0  0  0  0  0  0  0  0
    8.0769    5.5768   -1.7759 C   0  0  0  0  0  0  0  0  0  0  0  0
    7.3719    6.3078   -2.4481 O   0  0  0  0  0  0  0  0  0  0  0  0
    9.5068    5.2227   -2.1011 C   0  0  0  0  0  0  0  0  0  0  0  0
   10.1850    6.0002   -2.7486 O   0  0  0  0  0  0  0  0  0  0  0  0
    9.9749    3.9273   -1.4697 C   0  0  1  0  0  0  0  0  0  0  0  0
    9.5726    3.8198   -0.0778 O   0  0  0  0  0  0  0  0  0  0  0  0
    8.3223    4.2442    0.2647 C   0  0  0  0  0  0  0  0  0  0  0  0
    7.7670    3.7925    1.4567 C   0  0  0  0  0  0  0  0  0  0  0  0
    8.4911    2.9923    2.2517 F   0  0  0  0  0  0  0  0  0  0  0  0
    9.5706    2.7288   -2.2941 C   0  0  1  0  0  0  0  0  0  0  0  0
   10.0753    2.6844   -3.6357 O   0  0  0  0  0  0  0  0  0  0  0  0
    9.4990    1.4815   -1.6069 O   0  0  0  0  0  0  0  0  0  0  0  0
    8.3321    1.9783   -2.0611 C   0  0  0  0  0  0  0  0  0  0  0  0
    7.3255    2.3153   -1.4708 O   0  0  0  0  0  0  0  0  0  0  0  0
    2.3281    2.3986   -1.6709 C   0  0  0  0  0  0  0  0  0  0  0  0
    2.5022    1.8034   -0.6018 O   0  0  0  0  0  0  0  0  0  0  0  0
    2.2670    1.7001   -3.0161 C   0  0  3  0  0  0  0  0  0  0  0  0
    2.0779    2.6527   -4.1788 C   0  0  0  0  0  0  0  0  0  0  0  0
    1.5705    2.3126   -5.2421 O   0  0  0  0  0  0  0  0  0  0  0  0
    3.3956    0.9512   -3.1918 F   0  0  0  0  0  0  0  0  0  0  0  0
  1  2  1  0  0  0  0
  2  3  2  0  0  0  0
  3  4  1  0  0  0  0
  3 52  1  0  0  0  0
  4  5  1  0  0  0  0
  5  6  1  1  0  0  0
  5 49  1  0  0  0  0
  6  7  1  0  0  0  0
  7  8  2  0  0  0  0
  7 12  1  0  0  0  0
  8  9  1  0  0  0  0
  8 26  1  0  0  0  0
  9 10  1  0  0  0  0
 10 11  2  0  0  0  0
 10 22  1  0  0  0  0
 11 12  1  0  0  0  0
 11 13  1  0  0  0  0
 13 14  1  0  0  0  0
 13 20  1  0  0  0  0
 14 15  1  0  0  0  0
 15 16  2  0  0  0  0
 15 17  1  0  0  0  0
 17 18  1  0  0  0  0
 18 19  2  0  0  0  0
 18 20  1  0  0  0  0
 20 21  2  0  0  0  0
 21 22  1  0  0  0  0
 21 23  1  0  0  0  0
 23 24  1  0  0  0  0
 23 25  1  0  0  0  0
 24 25  1  0  0  0  0
 26 27  2  0  0  0  0
 26 32  1  0  0  0  0
 27 28  1  0  0  0  0
 28 29  1  0  0  0  0
 28 30  2  0  0  0  0
 30 31  1  0  0  0  0
 31 32  2  0  0  0  0
 31 42  1  0  0  0  0
 32 33  1  0  0  0  0
 33 34  2  0  0  0  0
 34 35  1  0  0  0  0
 34 41  1  0  0  0  0
 35 36  2  0  0  0  0
 35 37  1  0  0  0  0
 37 38  2  0  0  0  0
 39 37  1  6  0  0  0
 39 40  1  0  0  0  0
 39 44  1  0  0  0  0
 40 41  1  0  0  0  0
 41 42  2  0  0  0  0
 42 43  1  0  0  0  0
 44 45  1  6  0  0  0
 44 46  1  0  0  0  0
 44 47  1  0  0  0  0
 46 47  1  0  0  0  0
 47 48  2  0  0  0  0
 49 50  2  0  0  0  0
 49 51  1  0  0  0  0
 51 52  1  0  0  0  0
 51 54  1  0  0  0  0
 52 53  2  0  0  0  0
M  CHG  3  22   1  28   1  32   1
M  END
$$$$