
 OpenBabel10252012563D

 94109  0  0  1  0  0  0  0  0999 V2000
    1.4447   -9.1852   -0.6752 F   0  0  0  0  0  0  0  0  0  0  0  0
    1.2873   -9.1239    0.6742 C   0  0  3  0  0  0  0  0  0  0  0  0
    0.7532  -10.4790    1.1820 C   0  0  0  0  0  0  0  0  0  0  0  0
   -0.5795  -10.3539    1.9570 C   0  0  3  0  0  0  0  0  0  0  0  0
   -1.0356  -11.7281    2.4524 C   0  0  0  0  0  0  0  0  0  0  0  0
   -2.2089  -12.2510    1.6801 C   0  0  0  0  0  0  0  0  0  0  0  0
   -3.2898  -11.2006    1.5122 C   0  0  3  0  0  0  0  0  0  0  0  0
   -2.8555   -9.9831    0.7549 C   0  0  0  0  0  0  0  0  0  0  0  0
   -1.5464   -9.5442    1.0857 C   0  0  0  0  0  0  0  0  0  0  0  0
   -1.0214   -8.3595    0.5566 C   0  0  0  0  0  0  0  0  0  0  0  0
    0.3476   -7.9492    1.0304 C   0  0  3  0  0  0  0  0  0  0  0  0
    0.8558   -6.5442    0.6306 C   0  0  3  0  0  0  0  0  0  0  0  0
   -0.2143   -5.7174   -0.1265 C   0  0  0  0  0  0  0  0  0  0  0  0
   -1.0363   -6.5240   -1.1218 C   0  0  0  0  0  0  0  0  0  0  0  0
   -1.7139   -7.6631   -0.4169 C   0  0  0  0  0  0  0  0  0  0  0  0
   -2.9984   -8.1231   -0.7715 C   0  0  0  0  0  0  0  0  0  0  0  0
   -3.6480   -9.2471   -0.2052 C   0  0  0  0  0  0  0  0  0  0  0  0
   -5.0753   -9.5891   -0.7035 C   0  0  0  0  0  0  0  0  0  0  0  0
   -5.7014   -8.8232   -1.7092 C   0  0  0  0  0  0  0  0  0  0  0  0
   -7.0073   -9.0886   -2.1997 C   0  0  0  0  0  0  0  0  0  0  0  0
   -7.6272   -8.1338   -3.2076 C   0  0  3  0  0  0  0  0  0  0  0  0
   -8.0376   -6.8268   -2.4922 C   0  0  0  0  0  0  0  0  0  0  0  0
   -8.7139   -5.8508   -3.4455 C   0  0  0  0  0  0  0  0  0  0  0  0
   -9.9256   -6.4783   -4.1489 C   0  0  3  0  0  0  0  0  0  0  0  0
   -9.4980   -7.7609   -4.9001 C   0  0  3  0  0  0  0  0  0  0  0  0
   -8.8104   -8.7826   -3.9606 C   0  0  3  0  0  0  0  0  0  0  0  0
   -9.7738   -9.4668   -2.9741 C   0  0  0  0  0  0  0  0  0  0  0  0
   -9.0745  -10.6020   -2.2162 C   0  0  3  0  0  0  0  0  0  0  0  0
   -7.7135  -10.1998   -1.7390 C   0  0  0  0  0  0  0  0  0  0  0  0
   -7.1220  -10.9865   -0.7782 C   0  0  0  0  0  0  0  0  0  0  0  0
   -5.8936  -10.6476   -0.2629 C   0  0  0  0  0  0  0  0  0  0  0  0
   -5.6579  -11.4325    0.8208 F   0  0  0  0  0  0  0  0  0  0  0  0
   -8.9744  -11.8796   -3.0618 C   0  0  0  0  0  0  0  0  0  0  0  0
  -10.6499   -8.4059   -5.6780 C   0  0  0  0  0  0  0  0  0  0  0  0
  -10.5627   -5.4415   -5.0774 C   0  0  0  0  0  0  0  0  0  0  0  0
    1.3311   -5.6528    1.8437 C   0  0  3  0  0  0  0  0  0  0  0  0
    0.2878   -5.4462    2.8465 O   0  0  0  0  0  0  0  0  0  0  0  0
    0.4144   -6.0562    4.0660 C   0  0  0  0  0  0  0  0  0  0  0  0
    1.3603   -7.0350    4.3114 C   0  0  0  0  0  0  0  0  0  0  0  0
    2.5110   -7.2478    3.3766 C   0  0  3  0  0  0  0  0  0  0  0  0
    2.6885   -6.0139    2.4863 C   0  0  3  0  0  0  0  0  0  0  0  0
    3.1126   -4.9119    3.3497 O   0  0  0  0  0  0  0  0  0  0  0  0
    3.5530   -3.7647    2.7410 C   0  0  0  0  0  0  0  0  0  0  0  0
    3.5233   -2.5908    3.4982 C   0  0  0  0  0  0  0  0  0  0  0  0
    3.9921   -1.3916    2.9513 C   0  0  0  0  0  0  0  0  0  0  0  0
    4.5321   -1.3748    1.6632 C   0  0  0  0  0  0  0  0  0  0  0  0
    4.5743   -2.5410    0.9030 C   0  0  0  0  0  0  0  0  0  0  0  0
    4.0180   -3.7069    1.4290 C   0  0  0  0  0  0  0  0  0  0  0  0
    4.9272   -2.5137   -0.4463 N   0  0  0  0  0  0  0  0  0  0  0  0
    3.6762   -7.5308    4.1647 O   0  0  0  0  0  0  0  0  0  0  0  0
    1.3035   -7.7679    5.4924 C   0  0  0  0  0  0  0  0  0  0  0  0
    0.5994   -7.3248    6.6195 C   0  0  0  0  0  0  0  0  0  0  0  0
   -0.2357   -6.1995    6.4516 C   0  0  0  0  0  0  0  0  0  0  0  0
   -0.3902   -5.6535    5.1363 C   0  0  0  0  0  0  0  0  0  0  0  0
   -1.2597   -4.6465    4.9414 F   0  0  0  0  0  0  0  0  0  0  0  0
   -0.7982   -5.7101    7.6395 C   0  0  0  0  0  0  0  0  0  0  0  0
   -1.8814   -4.3498    7.6935 Cl  0  0  0  0  0  0  0  0  0  0  0  0
   -0.4474   -6.2308    8.9144 C   0  0  0  0  0  0  0  0  0  0  0  0
    0.4383   -7.3226    9.1394 C   0  0  0  0  0  0  0  0  0  0  0  0
    0.8045   -7.9319    7.9061 C   0  0  0  0  0  0  0  0  0  0  0  0
    1.4215   -9.5590    7.8358 Cl  0  0  0  0  0  0  0  0  0  0  0  0
    0.8631   -7.6978   10.6062 C   0  0  0  0  0  0  0  0  0  0  0  0
    0.3570   -6.9207   11.7095 C   0  0  0  0  0  0  0  0  0  0  0  0
    0.4474   -7.2627   13.1393 C   0  0  0  0  0  0  0  0  0  0  0  0
   -0.2192   -6.7181   14.4162 C   0  0  0  0  0  0  0  0  0  0  0  0
   -0.0306   -7.3898   15.6366 C   0  0  0  0  0  0  0  0  0  0  0  0
   -0.9089   -7.2088   16.7368 N   0  0  0  0  0  0  0  0  0  0  0  0
    0.8888   -8.4192   15.6439 C   0  0  0  0  0  0  0  0  0  0  0  0
    1.5513   -8.8205   14.5646 N   0  0  0  0  0  0  0  0  0  0  0  0
    1.3175   -8.3452   13.3458 N   0  3  0  0  0  0  0  0  0  0  0  0
    1.9614   -8.9789   12.3353 N   0  3  0  0  0  0  0  0  0  0  0  0
    1.7428   -8.7301   11.0181 C   0  0  0  0  0  0  0  0  0  0  0  0
    2.4505   -9.5416   10.2132 O   0  0  0  0  0  0  0  0  0  0  0  0
    3.1053  -10.2236   12.7394 Cl  0  0  0  0  0  0  0  0  0  0  0  0
   -1.2154   -5.4834   14.5425 N   0  3  0  0  0  0  0  0  0  0  0  0
   -1.2904   -4.6805   15.7227 N   0  3  0  0  0  0  0  0  0  0  0  0
    0.0709   -4.4868   16.7827 Cl  0  0  0  0  0  0  0  0  0  0  0  0
   -2.3333   -3.7936   15.9560 C   0  0  0  0  0  0  0  0  0  0  0  0
   -3.2319   -3.3614   14.9468 C   0  0  0  0  0  0  0  0  0  0  0  0
   -3.0063   -3.9408   13.7068 C   0  0  0  0  0  0  0  0  0  0  0  0
   -2.1271   -5.1316   13.5592 C   0  0  0  0  0  0  0  0  0  0  0  0
   -2.4028   -5.9541   12.4697 N   0  0  0  0  0  0  0  0  0  0  0  0
   -3.6689   -3.4063   12.6756 N   0  0  0  0  0  0  0  0  0  0  0  0
   -4.4941   -2.3325   12.7269 N   0  3  0  0  0  0  0  0  0  0  0  0
   -4.9209   -1.8181   13.9305 C   0  0  0  0  0  0  0  0  0  0  0  0
   -4.3025   -2.4135   15.0590 N   0  3  0  0  0  0  0  0  0  0  0  0
   -4.8227   -2.1316   16.2999 N   0  0  0  0  0  0  0  0  0  0  0  0
   -5.8983   -1.3122   16.4529 N   0  3  0  0  0  0  0  0  0  0  0  0
   -6.5792   -1.1893   17.7929 C   0  0  0  0  0  0  0  0  0  0  0  0
   -6.3688   -0.6227   15.4031 C   0  0  0  0  0  0  0  0  0  0  0  0
   -5.8749   -0.8494   14.1654 N   0  3  0  0  0  0  0  0  0  0  0  0
   -6.5277    0.1766   12.9546 Cl  0  0  0  0  0  0  0  0  0  0  0  0
   -4.9970   -1.7911   11.1833 Cl  0  0  0  0  0  0  0  0  0  0  0  0
   -3.9777  -10.6936    3.0961 Cl  0  0  0  0  0  0  0  0  0  0  0  0
  1  2  1  0  0  0  0
  2  3  1  0  0  0  0
  2 11  1  0  0  0  0
  3  4  1  0  0  0  0
  4  5  1  0  0  0  0
  4  9  1  0  0  0  0
  5  6  1  0  0  0  0
  6  7  1  0  0  0  0
  7  8  1  0  0  0  0
  7 94  1  0  0  0  0
  8  9  2  0  0  0  0
  8 17  1  0  0  0  0
  9 10  1  0  0  0  0
 10 11  1  0  0  0  0
 10 15  2  0  0  0  0
 11 12  1  0  0  0  0
 12 13  1  0  0  0  0
 12 36  1  0  0  0  0
 13 14  1  0  0  0  0
 14 15  1  0  0  0  0
 15 16  1  0  0  0  0
 16 17  2  0  0  0  0
 17 18  1  0  0  0  0
 18 19  2  0  0  0  0
 18 31  1  0  0  0  0
 19 20  1  0  0  0  0
 20 21  1  0  0  0  0
 20 29  2  0  0  0  0
 21 22  1  0  0  0  0
 21 26  1  0  0  0  0
 22 23  1  0  0  0  0
 23 24  1  0  0  0  0
 24 25  1  0  0  0  0
 24 35  1  0  0  0  0
 25 26  1  0  0  0  0
 25 34  1  0  0  0  0
 26 27  1  0  0  0  0
 27 28  1  0  0  0  0
 28 29  1  0  0  0  0
 28 33  1  0  0  0  0
 29 30  1  0  0  0  0
 30 31  2  0  0  0  0
 31 32  1  0  0  0  0
 36 37  1  0  0  0  0
 36 41  1  0  0  0  0
 37 38  1  0  0  0  0
 38 39  2  0  0  0  0
 38 54  1  0  0  0  0
 39 40  1  0  0  0  0
 39 51  1  0  0  0  0
 40 41  1  0  0  0  0
 40 50  1  0  0  0  0
 41 42  1  0  0  0  0
 42 43  1  0  0  0  0
 43 44  2  0  0  0  0
 43 48  1  0  0  0  0
 44 45  1  0  0  0  0
 45 46  2  0  0  0  0
 46 47  1  0  0  0  0
 47 48  2  0  0  0  0
 47 49  1  0  0  0  0
 51 52  2  0  0  0  0
 52 53  1  0  0  0  0
 52 60  1  0  0  0  0
 53 54  2  0  0  0  0
 53 56  1  0  0  0  0
 54 55  1  0  0  0  0
 56 57  1  0  0  0  0
 56 58  2  0  0  0  0
 58 59  1  0  0  0  0
 59 60  2  0  0  0  0
 59 62  1  0  0  0  0
 60 61  1  0  0  0  0
 62 63  2  0  0  0  0
 62 72  1  0  0  0  0
 63 64  1  0  0  0  0
 64 65  2  0  0  0  0
 64 70  1  0  0  0  0
 65 66  1  0  0  0  0
 65 75  1  0  0  0  0
 66 67  1  0  0  0  0
 66 68  2  0  0  0  0
 68 69  1  0  0  0  0
 69 70  2  0  0  0  0
 70 71  1  0  0  0  0
 71 72  2  0  0  0  0
 71 74  1  0  0  0  0
 72 73  1  0  0  0  0
 75 76  2  0  0  0  0
 75 81  1  0  0  0  0
 76 77  1  0  0  0  0
 76 78  1  0  0  0  0
 78 79  2  0  0  0  0
 79 80  1  0  0  0  0
 79 86  1  0  0  0  0
 80 81  2  0  0  0  0
 80 83  1  0  0  0  0
 81 82  1  0  0  0  0
 83 84  2  0  0  0  0
 84 85  1  0  0  0  0
 84 93  1  0  0  0  0
 85 86  2  0  0  0  0
 85 91  1  0  0  0  0
 86 87  1  0  0  0  0
 87 88  2  0  0  0  0
 88 89  1  0  0  0  0
 88 90  1  0  0  0  0
 90 91  2  0  0  0  0
 91 92  1  0  0  0  0
M  CHG  8  70   1  71   1  75   1  76   1  84   1  86   1  88   1  91   1
M  END
$$$$