
 OpenBabel11212001553D

 53 61  0  0  1  0  0  0  0  0999 V2000
    4.0392    1.9163   -3.1568 O   0  0  0  0  0  0  0  0  0  0  0  0
    2.7031    2.0398   -2.8725 C   0  0  0  0  0  0  0  0  0  0  0  0
    1.8631    0.9971   -2.9024 C   0  0  0  0  0  0  0  0  0  0  0  0
    2.3373   -0.2517   -3.2471 O   0  0  0  0  0  0  0  0  0  0  0  0
    1.5404   -1.3946   -2.9785 C   0  0  2  0  0  0  0  0  0  0  0  0
    2.0812   -2.5749   -3.6146 O   0  0  0  0  0  0  0  0  0  0  0  0
    2.1782   -2.6379   -5.0002 C   0  0  0  0  0  0  0  0  0  0  0  0
    2.1011   -3.8204   -5.6495 C   0  0  0  0  0  0  0  0  0  0  0  0
    2.2215   -3.9453   -7.0330 O   0  0  0  0  0  0  0  0  0  0  0  0
    2.5383   -2.8261   -7.7974 C   0  0  0  0  0  0  0  0  0  0  0  0
    2.6817   -1.6133   -7.2366 C   0  0  0  0  0  0  0  0  0  0  0  0
    2.4640   -1.3785   -5.7710 C   0  0  0  0  0  0  0  0  0  0  0  0
    3.0891   -0.4101   -8.0328 C   0  0  3  0  0  0  0  0  0  0  0  0
    4.3586   -0.0100   -7.5458 O   0  0  0  0  0  0  0  0  0  0  0  0
    4.9927    1.0198   -8.1593 C   0  0  0  0  0  0  0  0  0  0  0  0
    5.9374    1.5904   -7.6390 O   0  0  0  0  0  0  0  0  0  0  0  0
    4.5334    1.3543   -9.3882 O   0  0  0  0  0  0  0  0  0  0  0  0
    3.6829    0.5243  -10.1711 C   0  0  3  0  0  0  0  0  0  0  0  0
    3.2737   -0.7219   -9.4698 C   0  0  0  0  0  0  0  0  0  0  0  0
    3.0872   -1.9615   -9.9822 C   0  0  0  0  0  0  0  0  0  0  0  0
    2.7186   -3.0119   -9.1465 O   0  3  0  0  0  0  0  0  0  0  0  0
    3.2300   -2.3223  -11.4172 C   0  0  0  0  0  0  0  0  0  0  0  0
    3.6365   -3.6499  -11.7941 O   0  0  0  0  0  0  0  0  0  0  0  0
    2.2874   -3.2128  -12.0382 O   0  0  0  0  0  0  0  0  0  0  0  0
    2.4835    1.2237  -10.4315 O   0  0  0  0  0  0  0  0  0  0  0  0
    1.8983   -5.1003   -4.9441 C   0  0  0  0  0  0  0  0  0  0  0  0
    3.0153   -5.8044   -4.5215 C   0  0  0  0  0  0  0  0  0  0  0  0
    2.9270   -6.9501   -3.8312 N   0  0  0  0  0  0  0  0  0  0  0  0
    1.6925   -7.4364   -3.4955 N   0  0  0  0  0  0  0  0  0  0  0  0
    0.5593   -6.8076   -3.8585 C   0  0  0  0  0  0  0  0  0  0  0  0
    0.6227   -5.6245   -4.6260 C   0  0  0  0  0  0  0  0  0  0  0  0
   -0.5850   -5.0132   -5.0222 C   0  0  0  0  0  0  0  0  0  0  0  0
   -1.8202   -5.5163   -4.6035 C   0  0  0  0  0  0  0  0  0  0  0  0
   -3.0566   -4.8430   -5.0082 C   0  0  0  0  0  0  0  0  0  0  0  0
   -3.0451   -3.9323   -5.8231 O   0  0  0  0  0  0  0  0  0  0  0  0
   -4.3451   -5.3390   -4.3936 C   0  0  0  0  0  0  0  0  0  0  0  0
   -5.4239   -4.9383   -4.8081 O   0  0  0  0  0  0  0  0  0  0  0  0
   -4.1698   -6.2709   -3.2178 C   0  0  1  0  0  0  0  0  0  0  0  0
   -3.0557   -7.1660   -3.3215 O   0  0  0  0  0  0  0  0  0  0  0  0
   -1.8836   -6.6434   -3.8025 C   0  0  0  0  0  0  0  0  0  0  0  0
   -0.6978   -7.3311   -3.4804 C   0  0  0  0  0  0  0  0  0  0  0  0
   -0.7677   -8.4173   -2.5685 N   0  0  0  0  0  0  0  0  0  0  0  0
   -4.1359   -5.5139   -1.9184 C   0  0  1  0  0  0  0  0  0  0  0  0
   -3.1189   -4.4934   -1.7885 O   0  0  0  0  0  0  0  0  0  0  0  0
   -5.4142   -5.1312   -1.3932 O   0  0  0  0  0  0  0  0  0  0  0  0
   -4.7181   -6.0422   -0.7012 C   0  0  0  0  0  0  0  0  0  0  0  0
   -5.0119   -7.1655   -0.3348 O   0  0  0  0  0  0  0  0  0  0  0  0
    0.0563   -1.2184   -3.2694 C   0  0  0  0  0  0  0  0  0  0  0  0
   -0.6593   -2.0051   -3.8724 O   0  0  0  0  0  0  0  0  0  0  0  0
   -0.4886    0.0801   -2.7507 C   0  0  0  0  0  0  0  0  0  0  0  0
   -1.6628    0.1518   -2.4248 O   0  0  0  0  0  0  0  0  0  0  0  0
    0.4231    1.2792   -2.6474 C   0  0  0  0  0  0  0  0  0  0  0  0
   -0.0211    2.3925   -2.4189 O   0  0  0  0  0  0  0  0  0  0  0  0
  1  2  1  0  0  0  0
  2  3  2  0  0  0  0
  3  4  1  0  0  0  0
  3 52  1  0  0  0  0
  4  5  1  0  0  0  0
  5  6  1  6  0  0  0
  5 48  1  0  0  0  0
  6  7  1  0  0  0  0
  7  8  2  0  0  0  0
  7 12  1  0  0  0  0
  8  9  1  0  0  0  0
  8 26  1  0  0  0  0
  9 10  1  0  0  0  0
 10 11  2  0  0  0  0
 10 21  1  0  0  0  0
 11 12  1  0  0  0  0
 11 13  1  0  0  0  0
 13 14  1  0  0  0  0
 13 19  1  0  0  0  0
 14 15  1  0  0  0  0
 15 16  2  0  0  0  0
 15 17  1  0  0  0  0
 17 18  1  0  0  0  0
 18 19  1  0  0  0  0
 18 25  1  0  0  0  0
 19 20  2  0  0  0  0
 20 21  1  0  0  0  0
 20 22  1  0  0  0  0
 22 23  1  0  0  0  0
 22 24  1  0  0  0  0
 23 24  1  0  0  0  0
 26 27  2  0  0  0  0
 26 31  1  0  0  0  0
 27 28  1  0  0  0  0
 28 29  2  0  0  0  0
 29 30  1  0  0  0  0
 30 31  2  0  0  0  0
 30 41  1  0  0  0  0
 31 32  1  0  0  0  0
 32 33  2  0  0  0  0
 33 34  1  0  0  0  0
 33 40  1  0  0  0  0
 34 35  2  0  0  0  0
 34 36  1  0  0  0  0
 36 37  2  0  0  0  0
 38 36  1  6  0  0  0
 38 39  1  0  0  0  0
 38 43  1  0  0  0  0
 39 40  1  0  0  0  0
 40 41  2  0  0  0  0
 41 42  1  0  0  0  0
 43 44  1  1  0  0  0
 43 45  1  0  0  0  0
 43 46  1  0  0  0  0
 45 46  1  0  0  0  0
 46 47  2  0  0  0  0
 48 49  2  0  0  0  0
 48 50  1  0  0  0  0
 50 51  2  0  0  0  0
 50 52  1  0  0  0  0
 52 53  2  0  0  0  0
M  CHG  1  21   1
M  END
$$$$