
 OpenBabel11222020233D

 54 62  0  0  1  0  0  0  0  0999 V2000
    4.9905   -1.9097    3.1416 O   0  0  0  0  0  0  0  0  0  0  0  0
    4.1833   -0.8184    2.9513 C   0  0  0  0  0  0  0  0  0  0  0  0
    3.2277   -0.7841    2.0173 C   0  0  0  0  0  0  0  0  0  0  0  0
    3.0257   -1.8489    1.1520 O   0  0  0  0  0  0  0  0  0  0  0  0
    1.6568   -2.1621    0.9653 C   0  0  2  0  0  0  0  0  0  0  0  0
    1.5045   -3.2198   -0.0236 O   0  0  0  0  0  0  0  0  0  0  0  0
    1.5611   -4.5516    0.3613 C   0  0  0  0  0  0  0  0  0  0  0  0
    0.9728   -5.5242   -0.3818 C   0  0  0  0  0  0  0  0  0  0  0  0
    1.0482   -6.8658   -0.0297 O   0  0  0  0  0  0  0  0  0  0  0  0
    1.5300   -7.2226    1.2672 C   0  0  3  0  0  0  0  0  0  0  0  0
    2.6699   -6.3559    1.7762 C   0  0  3  0  0  0  0  0  0  0  0  0
    2.3594   -4.8743    1.5981 C   0  0  0  0  0  0  0  0  0  0  0  0
    2.8421   -6.7153    3.2335 C   0  0  0  0  0  0  0  0  0  0  0  0
    3.2818   -5.8442    4.0805 N   0  0  0  0  0  0  0  0  0  0  0  0
    3.3304   -6.2538    5.3990 C   0  0  0  0  0  0  0  0  0  0  0  0
    2.9115   -5.5230    6.2772 O   0  0  0  0  0  0  0  0  0  0  0  0
    3.7609   -7.5379    5.6760 N   0  0  0  0  0  0  0  0  0  0  0  0
    3.3419   -8.4140    4.8432 C   0  0  0  0  0  0  0  0  0  0  0  0
    2.4433   -8.1014    3.6854 C   0  0  3  0  0  0  0  0  0  0  0  0
    2.4691   -9.0966    2.5153 C   0  0  3  0  0  0  0  0  0  0  0  0
    1.9508   -8.5724    1.2844 O   0  3  0  0  0  0  0  0  0  0  0  0
    1.7605  -10.3892    2.8458 C   0  0  0  0  0  0  0  0  0  0  0  0
    0.3699  -10.2351    3.1368 O   0  0  0  0  0  0  0  0  0  0  0  0
    0.7888  -10.8180    1.8850 O   0  0  0  0  0  0  0  0  0  0  0  0
    3.6822   -9.6897    5.0104 O   0  0  0  0  0  0  0  0  0  0  0  0
    0.1807   -5.2718   -1.6563 C   0  0  0  0  0  0  0  0  0  0  0  0
   -0.4964   -4.0609   -1.8120 C   0  0  0  0  0  0  0  0  0  0  0  0
   -1.1923   -3.7686   -2.9136 N   0  3  0  0  0  0  0  0  0  0  0  0
   -1.7994   -2.5686   -3.0019 F   0  0  0  0  0  0  0  0  0  0  0  0
   -1.3255   -4.6152   -3.9117 N   0  0  0  0  0  0  0  0  0  0  0  0
   -0.7666   -5.8228   -3.8326 C   0  0  0  0  0  0  0  0  0  0  0  0
    0.0034   -6.2153   -2.7141 C   0  0  0  0  0  0  0  0  0  0  0  0
    0.5103   -7.5371   -2.7331 C   0  0  0  0  0  0  0  0  0  0  0  0
    0.2219   -8.4405   -3.7649 C   0  0  0  0  0  0  0  0  0  0  0  0
    0.5946   -9.8457   -3.6038 C   0  0  0  0  0  0  0  0  0  0  0  0
    1.0357  -10.2391   -2.5322 O   0  0  0  0  0  0  0  0  0  0  0  0
    0.3824  -10.7566   -4.7909 C   0  0  0  0  0  0  0  0  0  0  0  0
    0.6621  -11.9428   -4.7127 O   0  0  0  0  0  0  0  0  0  0  0  0
    0.0137  -10.0439   -6.0786 C   0  0  1  0  0  0  0  0  0  0  0  0
   -0.7802   -8.8543   -5.9209 O   0  0  0  0  0  0  0  0  0  0  0  0
   -0.4819   -8.0361   -4.8739 C   0  0  0  0  0  0  0  0  0  0  0  0
   -0.9702   -6.7276   -4.8850 C   0  0  0  0  0  0  0  0  0  0  0  0
   -1.7006   -6.3236   -5.9370 F   0  0  0  0  0  0  0  0  0  0  0  0
    1.2365   -9.7666   -6.9316 C   0  0  1  0  0  0  0  0  0  0  0  0
    1.0832   -9.0450   -8.2262 N   0  0  0  0  0  0  0  0  0  0  0  0
    2.3753   -9.3553   -6.1695 O   0  0  0  0  0  0  0  0  0  0  0  0
    2.4766  -10.5472   -6.7963 C   0  0  0  0  0  0  0  0  0  0  0  0
    3.2811  -10.9327   -7.6196 O   0  0  0  0  0  0  0  0  0  0  0  0
    0.8380   -0.9969    0.4199 C   0  0  0  0  0  0  0  0  0  0  0  0
   -0.2090   -1.1268   -0.2069 O   0  0  0  0  0  0  0  0  0  0  0  0
    1.4138    0.3579    0.7542 C   0  0  0  0  0  0  0  0  0  0  0  0
    1.1245    1.3292    0.0777 O   0  0  0  0  0  0  0  0  0  0  0  0
    2.4041    0.4482    1.8941 C   0  0  0  0  0  0  0  0  0  0  0  0
    2.4421    1.4018    2.6464 O   0  0  0  0  0  0  0  0  0  0  0  0
  1  2  1  0  0  0  0
  2  3  2  0  0  0  0
  3  4  1  0  0  0  0
  3 53  1  0  0  0  0
  4  5  1  0  0  0  0
  5  6  1  6  0  0  0
  5 49  1  0  0  0  0
  6  7  1  0  0  0  0
  7  8  2  0  0  0  0
  7 12  1  0  0  0  0
  8  9  1  0  0  0  0
  8 26  1  0  0  0  0
  9 10  1  0  0  0  0
 10 11  1  0  0  0  0
 10 21  1  0  0  0  0
 11 12  1  0  0  0  0
 11 13  1  0  0  0  0
 13 14  2  0  0  0  0
 13 19  1  0  0  0  0
 14 15  1  0  0  0  0
 15 16  2  0  0  0  0
 15 17  1  0  0  0  0
 17 18  2  0  0  0  0
 18 19  1  0  0  0  0
 18 25  1  0  0  0  0
 19 20  1  0  0  0  0
 20 21  1  0  0  0  0
 20 22  1  0  0  0  0
 22 23  1  0  0  0  0
 22 24  1  0  0  0  0
 23 24  1  0  0  0  0
 26 27  2  0  0  0  0
 26 32  1  0  0  0  0
 27 28  1  0  0  0  0
 28 29  1  0  0  0  0
 28 30  2  0  0  0  0
 30 31  1  0  0  0  0
 31 32  2  0  0  0  0
 31 42  1  0  0  0  0
 32 33  1  0  0  0  0
 33 34  2  0  0  0  0
 34 35  1  0  0  0  0
 34 41  1  0  0  0  0
 35 36  2  0  0  0  0
 35 37  1  0  0  0  0
 37 38  2  0  0  0  0
 39 37  1  1  0  0  0
 39 40  1  0  0  0  0
 39 44  1  0  0  0  0
 40 41  1  0  0  0  0
 41 42  2  0  0  0  0
 42 43  1  0  0  0  0
 44 45  1  6  0  0  0
 44 46  1  0  0  0  0
 44 47  1  0  0  0  0
 46 47  1  0  0  0  0
 47 48  2  0  0  0  0
 49 50  2  0  0  0  0
 49 51  1  0  0  0  0
 51 52  2  0  0  0  0
 51 53  1  0  0  0  0
 53 54  2  0  0  0  0
M  CHG  2  21   1  28   1
M  END
$$$$