
 OpenBabel11252002263D

 52 61  0  0  1  0  0  0  0  0999 V2000
   -3.7004  -11.4277   14.1269 O   0  0  0  0  0  0  0  0  0  0  0  0
   -3.8817  -10.8725   15.3686 C   0  0  0  0  0  0  0  0  0  0  0  0
   -4.1088   -9.5661   15.5578 C   0  0  0  0  0  0  0  0  0  0  0  0
   -4.1484   -8.6835   14.4889 O   0  0  0  0  0  0  0  0  0  0  0  0
   -5.0707   -7.6238   14.6739 C   0  0  2  0  0  0  0  0  0  0  0  0
   -5.0716   -6.7521   13.5302 O   0  0  0  0  0  0  0  0  0  0  0  0
   -5.8407   -7.0746   12.4256 C   0  0  0  0  0  0  0  0  0  0  0  0
   -5.8918   -6.2084   11.3953 C   0  0  0  0  0  0  0  0  0  0  0  0
   -6.6830   -6.4026   10.2679 O   0  0  0  0  0  0  0  0  0  0  0  0
   -7.5059   -7.5274   10.1920 C   0  0  0  0  0  0  0  0  0  0  0  0
   -7.5066   -8.4590   11.1627 C   0  0  0  0  0  0  0  0  0  0  0  0
   -6.6467   -8.3549   12.3941 C   0  0  0  0  0  0  0  0  0  0  0  0
   -8.4222   -9.5991   11.0580 C   0  0  0  0  0  0  0  0  0  0  0  0
   -8.2925  -10.5799   11.9599 N   0  0  0  0  0  0  0  0  0  0  0  0
   -9.1704  -11.5888   11.8557 C   0  0  0  0  0  0  0  0  0  0  0  0
  -10.1419  -11.6695   10.9363 N   0  0  0  0  0  0  0  0  0  0  0  0
  -10.2379  -10.6600   10.0565 C   0  0  0  0  0  0  0  0  0  0  0  0
   -9.3888   -9.5764   10.0697 C   0  0  0  0  0  0  0  0  0  0  0  0
   -9.4997   -8.4140    9.1388 C   0  0  3  0  0  0  0  0  0  0  0  0
   -8.3234   -7.6230    9.0786 O   0  3  0  0  0  0  0  0  0  0  0  0
  -10.6404   -7.4965    9.5268 C   0  0  0  0  0  0  0  0  0  0  0  0
  -11.0008   -6.3994    8.6275 N   0  0  0  0  0  0  0  0  0  0  0  0
  -11.9439   -7.4438    8.9147 N   0  0  0  0  0  0  0  0  0  0  0  0
   -5.1332   -4.9397   11.4073 C   0  0  0  0  0  0  0  0  0  0  0  0
   -5.7450   -3.8142   11.9495 C   0  0  0  0  0  0  0  0  0  0  0  0
   -5.1143   -2.6369   11.9622 N   0  3  0  0  0  0  0  0  0  0  0  0
   -5.7463   -1.5605   12.4682 F   0  0  0  0  0  0  0  0  0  0  0  0
   -3.8992   -2.4781   11.4771 N   0  0  0  0  0  0  0  0  0  0  0  0
   -3.2292   -3.5272   10.9853 C   0  0  0  0  0  0  0  0  0  0  0  0
   -3.8120   -4.8120   10.9308 C   0  0  0  0  0  0  0  0  0  0  0  0
   -3.0572   -5.8848   10.3979 C   0  0  0  0  0  0  0  0  0  0  0  0
   -1.7605   -5.6808    9.9126 C   0  0  0  0  0  0  0  0  0  0  0  0
   -1.1872   -4.4182    9.9784 C   0  0  0  0  0  0  0  0  0  0  0  0
   -1.9109   -3.3390   10.5210 C   0  0  0  0  0  0  0  0  0  0  0  0
   -1.3838   -2.0342   10.3877 N   0  0  0  0  0  0  0  0  0  0  0  0
    0.0971   -4.1642    9.5410 O   0  0  0  0  0  0  0  0  0  0  0  0
    0.9442   -5.3389    9.5115 C   0  0  1  0  0  0  0  0  0  0  0  0
    0.3840   -6.4844    8.7870 C   0  0  0  0  0  0  0  0  0  0  0  0
    0.9301   -7.1046    7.8954 O   0  0  0  0  0  0  0  0  0  0  0  0
   -1.0097   -6.7940    9.3017 C   0  0  0  0  0  0  0  0  0  0  0  0
   -1.4983   -7.9095    9.2294 O   0  0  0  0  0  0  0  0  0  0  0  0
    2.3281   -5.1225    9.4242 O   0  0  0  0  0  0  0  0  0  0  0  0
    1.8221   -5.6538   10.6869 C   0  0  1  0  0  0  0  0  0  0  0  0
    1.4546   -4.6959   11.7440 O   0  0  0  0  0  0  0  0  0  0  0  0
    2.6868   -5.1528   11.7222 C   0  0  0  0  0  0  0  0  0  0  0  0
    3.3354   -5.7049   12.5915 O   0  0  0  0  0  0  0  0  0  0  0  0
   -4.7236   -6.7527   15.8655 C   0  0  0  0  0  0  0  0  0  0  0  0
   -4.8299   -5.5329   15.8898 O   0  0  0  0  0  0  0  0  0  0  0  0
   -4.3289   -7.5653   17.0750 C   0  0  0  0  0  0  0  0  0  0  0  0
   -4.0600   -7.0075   18.1242 O   0  0  0  0  0  0  0  0  0  0  0  0
   -4.3131   -9.0784   16.9544 C   0  0  0  0  0  0  0  0  0  0  0  0
   -4.5511   -9.8008   17.9051 O   0  0  0  0  0  0  0  0  0  0  0  0
  1  2  1  0  0  0  0
  2  3  2  0  0  0  0
  3  4  1  0  0  0  0
  3 51  1  0  0  0  0
  4  5  1  0  0  0  0
  5  6  1  6  0  0  0
  5 47  1  0  0  0  0
  6  7  1  0  0  0  0
  7  8  2  0  0  0  0
  7 12  1  0  0  0  0
  8  9  1  0  0  0  0
  8 24  1  0  0  0  0
  9 10  1  0  0  0  0
 10 11  2  0  0  0  0
 10 20  1  0  0  0  0
 11 12  1  0  0  0  0
 11 13  1  0  0  0  0
 13 14  2  0  0  0  0
 13 18  1  0  0  0  0
 14 15  1  0  0  0  0
 15 16  2  0  0  0  0
 16 17  1  0  0  0  0
 17 18  2  0  0  0  0
 18 19  1  0  0  0  0
 19 20  1  0  0  0  0
 19 21  1  0  0  0  0
 21 22  1  0  0  0  0
 21 23  1  0  0  0  0
 22 23  1  0  0  0  0
 24 25  2  0  0  0  0
 24 30  1  0  0  0  0
 25 26  1  0  0  0  0
 26 27  1  0  0  0  0
 26 28  2  0  0  0  0
 28 29  1  0  0  0  0
 29 30  2  0  0  0  0
 29 34  1  0  0  0  0
 30 31  1  0  0  0  0
 31 32  2  0  0  0  0
 32 33  1  0  0  0  0
 32 40  1  0  0  0  0
 33 34  2  0  0  0  0
 33 36  1  0  0  0  0
 34 35  1  0  0  0  0
 37 36  1  1  0  0  0
 37 38  1  0  0  0  0
 37 42  1  0  0  0  0
 37 43  1  0  0  0  0
 38 39  2  0  0  0  0
 38 40  1  0  0  0  0
 40 41  2  0  0  0  0
 43 42  1  6  0  0  0
 43 44  1  0  0  0  0
 43 45  1  0  0  0  0
 44 45  1  0  0  0  0
 45 46  2  0  0  0  0
 47 48  2  0  0  0  0
 47 49  1  0  0  0  0
 49 50  2  0  0  0  0
 49 51  1  0  0  0  0
 51 52  2  0  0  0  0
M  CHG  2  20   1  26   1
M  END
$$$$