
 OpenBabel11222000193D

 55 63  0  0  1  0  0  0  0  0999 V2000
    3.5240    6.6075   -3.7677 O   0  0  0  0  0  0  0  0  0  0  0  0
    2.7459    5.5606   -4.1965 C   0  0  0  0  0  0  0  0  0  0  0  0
    2.2534    4.6414   -3.3596 C   0  0  0  0  0  0  0  0  0  0  0  0
    2.5425    4.7172   -2.0087 O   0  0  0  0  0  0  0  0  0  0  0  0
    1.5668    4.1294   -1.1626 C   0  0  2  0  0  0  0  0  0  0  0  0
    1.9448    4.2984    0.2122 O   0  0  0  0  0  0  0  0  0  0  0  0
    2.0771    5.5967    0.6863 C   0  0  0  0  0  0  0  0  0  0  0  0
    2.9398    5.8940    1.6843 C   0  0  0  0  0  0  0  0  0  0  0  0
    3.0601    7.1933    2.1876 O   0  0  0  0  0  0  0  0  0  0  0  0
    2.1889    8.1971    1.7808 C   0  0  0  0  0  0  0  0  0  0  0  0
    1.2390    7.9525    0.8624 C   0  0  0  0  0  0  0  0  0  0  0  0
    1.1537    6.6477    0.1307 C   0  0  0  0  0  0  0  0  0  0  0  0
    0.1754    8.9585    0.5358 C   0  0  3  0  0  0  0  0  0  0  0  0
   -1.0406    8.4015    1.0077 O   0  0  0  0  0  0  0  0  0  0  0  0
   -2.1629    9.1670    1.0179 C   0  0  0  0  0  0  0  0  0  0  0  0
   -3.2596    8.6695    1.2119 O   0  0  0  0  0  0  0  0  0  0  0  0
   -1.9876   10.4952    0.8262 O   0  0  0  0  0  0  0  0  0  0  0  0
   -0.7345   11.1578    0.9354 C   0  0  3  0  0  0  0  0  0  0  0  0
    0.3714   10.2268    1.2693 C   0  0  0  0  0  0  0  0  0  0  0  0
    1.3981   10.4420    2.1205 C   0  0  0  0  0  0  0  0  0  0  0  0
    2.3139    9.4330    2.3780 O   0  3  0  0  0  0  0  0  0  0  0  0
    1.6011   11.7140    2.8497 C   0  0  0  0  0  0  0  0  0  0  0  0
    1.0159   11.9224    4.1408 O   0  0  0  0  0  0  0  0  0  0  0  0
    2.4428   11.7662    4.0133 O   0  0  0  0  0  0  0  0  0  0  0  0
   -0.3898   11.7122   -0.3166 O   0  0  0  0  0  0  0  0  0  0  0  0
    3.8168    4.8752    2.3438 C   0  0  0  0  0  0  0  0  0  0  0  0
    3.3311    3.5740    2.4936 C   0  0  0  0  0  0  0  0  0  0  0  0
    4.0787    2.6143    3.0321 N   0  3  0  0  0  0  0  0  0  0  0  0
    3.5722    1.3709    3.1378 F   0  0  0  0  0  0  0  0  0  0  0  0
    5.2969    2.8378    3.4601 N   0  0  0  0  0  0  0  0  0  0  0  0
    5.8390    4.0599    3.4032 C   0  0  0  0  0  0  0  0  0  0  0  0
    5.1175    5.1381    2.8502 C   0  0  0  0  0  0  0  0  0  0  0  0
    5.7484    6.4057    2.8222 C   0  0  0  0  0  0  0  0  0  0  0  0
    7.0408    6.6127    3.3139 C   0  0  0  0  0  0  0  0  0  0  0  0
    7.6084    7.9618    3.2738 C   0  0  0  0  0  0  0  0  0  0  0  0
    6.9215    8.9028    2.9000 O   0  0  0  0  0  0  0  0  0  0  0  0
    9.0330    8.1265    3.7420 C   0  0  0  0  0  0  0  0  0  0  0  0
    9.4793    9.2468    3.9344 O   0  0  0  0  0  0  0  0  0  0  0  0
    9.8082    6.8329    3.8940 C   0  0  1  0  0  0  0  0  0  0  0  0
    9.0317    5.6940    4.3171 O   0  0  0  0  0  0  0  0  0  0  0  0
    7.7624    5.5604    3.8338 C   0  0  0  0  0  0  0  0  0  0  0  0
    7.1501    4.2965    3.8734 C   0  0  0  0  0  0  0  0  0  0  0  0
    7.9281    3.1636    4.4163 C   0  0  0  0  0  0  0  0  0  0  0  0
    7.3611    2.2248    4.9597 O   0  0  0  0  0  0  0  0  0  0  0  0
   10.6246    6.5399    2.6606 C   0  0  1  0  0  0  0  0  0  0  0  0
   11.6027    7.5194    2.2837 O   0  0  0  0  0  0  0  0  0  0  0  0
   11.0303    5.1811    2.4726 O   0  0  0  0  0  0  0  0  0  0  0  0
   10.1304    5.6679    1.5910 C   0  0  0  0  0  0  0  0  0  0  0  0
    9.0104    5.2980    1.3285 O   0  0  0  0  0  0  0  0  0  0  0  0
    1.4782    2.6530   -1.4850 C   0  0  0  0  0  0  0  0  0  0  0  0
    1.7103    1.7402   -0.7067 O   0  0  0  0  0  0  0  0  0  0  0  0
    1.0788    2.4412   -2.9249 C   0  0  0  0  0  0  0  0  0  0  0  0
    0.4243    1.4635   -3.2378 O   0  0  0  0  0  0  0  0  0  0  0  0
    1.4356    3.5266   -3.9303 C   0  0  0  0  0  0  0  0  0  0  0  0
    1.0465    3.4957   -5.0835 O   0  0  0  0  0  0  0  0  0  0  0  0
  1  2  1  0  0  0  0
  2  3  2  0  0  0  0
  3  4  1  0  0  0  0
  3 54  1  0  0  0  0
  4  5  1  0  0  0  0
  5  6  1  1  0  0  0
  5 50  1  0  0  0  0
  6  7  1  0  0  0  0
  7  8  2  0  0  0  0
  7 12  1  0  0  0  0
  8  9  1  0  0  0  0
  8 26  1  0  0  0  0
  9 10  1  0  0  0  0
 10 11  2  0  0  0  0
 10 21  1  0  0  0  0
 11 12  1  0  0  0  0
 11 13  1  0  0  0  0
 13 14  1  0  0  0  0
 13 19  1  0  0  0  0
 14 15  1  0  0  0  0
 15 16  2  0  0  0  0
 15 17  1  0  0  0  0
 17 18  1  0  0  0  0
 18 19  1  0  0  0  0
 18 25  1  0  0  0  0
 19 20  2  0  0  0  0
 20 21  1  0  0  0  0
 20 22  1  0  0  0  0
 22 23  1  0  0  0  0
 22 24  1  0  0  0  0
 23 24  1  0  0  0  0
 26 27  2  0  0  0  0
 26 32  1  0  0  0  0
 27 28  1  0  0  0  0
 28 29  1  0  0  0  0
 28 30  2  0  0  0  0
 30 31  1  0  0  0  0
 31 32  2  0  0  0  0
 31 42  1  0  0  0  0
 32 33  1  0  0  0  0
 33 34  2  0  0  0  0
 34 35  1  0  0  0  0
 34 41  1  0  0  0  0
 35 36  2  0  0  0  0
 35 37  1  0  0  0  0
 37 38  2  0  0  0  0
 39 37  1  6  0  0  0
 39 40  1  0  0  0  0
 39 45  1  0  0  0  0
 40 41  1  0  0  0  0
 41 42  2  0  0  0  0
 42 43  1  0  0  0  0
 43 44  2  0  0  0  0
 45 46  1  6  0  0  0
 45 47  1  0  0  0  0
 45 48  1  0  0  0  0
 47 48  1  0  0  0  0
 48 49  2  0  0  0  0
 50 51  2  0  0  0  0
 50 52  1  0  0  0  0
 52 53  2  0  0  0  0
 52 54  1  0  0  0  0
 54 55  2  0  0  0  0
M  CHG  2  21   1  28   1
M  END
$$$$