
 OpenBabel11212014153D

 52 60  0  0  1  0  0  0  0  0999 V2000
    1.4722    2.7462   -5.6461 O   0  0  0  0  0  0  0  0  0  0  0  0
    1.3826    2.8276   -4.2769 C   0  0  0  0  0  0  0  0  0  0  0  0
    1.2644    1.7677   -3.4640 C   0  0  0  0  0  0  0  0  0  0  0  0
    1.1517    0.4819   -3.9392 O   0  0  0  0  0  0  0  0  0  0  0  0
    1.9189   -0.5007   -3.2311 C   0  0  2  0  0  0  0  0  0  0  0  0
    1.9092   -1.7970   -3.8946 O   0  0  0  0  0  0  0  0  0  0  0  0
    2.1312   -1.8792   -5.2684 C   0  0  0  0  0  0  0  0  0  0  0  0
    2.1912   -3.0598   -5.9304 C   0  0  0  0  0  0  0  0  0  0  0  0
    2.3510   -3.1469   -7.3232 O   0  0  0  0  0  0  0  0  0  0  0  0
    2.5584   -1.9892   -8.0707 C   0  0  0  0  0  0  0  0  0  0  0  0
    2.5558   -0.7823   -7.4893 C   0  0  0  0  0  0  0  0  0  0  0  0
    2.2771   -0.6051   -6.0430 C   0  0  0  0  0  0  0  0  0  0  0  0
    2.8012    0.4901   -8.2335 C   0  0  3  0  0  0  0  0  0  0  0  0
    3.9938    1.0525   -7.7165 O   0  0  0  0  0  0  0  0  0  0  0  0
    4.3550    2.2579   -8.2237 C   0  0  0  0  0  0  0  0  0  0  0  0
    5.0735    3.0271   -7.6078 O   0  0  0  0  0  0  0  0  0  0  0  0
    3.8527    2.5385   -9.4529 O   0  0  0  0  0  0  0  0  0  0  0  0
    3.3725    1.5275  -10.3608 C   0  0  0  0  0  0  0  0  0  0  0  0
    3.0526    0.2428   -9.6697 C   0  0  0  0  0  0  0  0  0  0  0  0
    3.0393   -0.9989  -10.2103 C   0  0  0  0  0  0  0  0  0  0  0  0
    2.7752   -2.1152   -9.4219 O   0  3  0  0  0  0  0  0  0  0  0  0
    3.2796   -1.2552  -11.6470 C   0  0  0  0  0  0  0  0  0  0  0  0
    2.6721   -2.3809  -12.2999 O   0  0  0  0  0  0  0  0  0  0  0  0
    2.2498   -1.0405  -12.6199 O   0  0  0  0  0  0  0  0  0  0  0  0
    2.1236   -4.3801   -5.2702 C   0  0  0  0  0  0  0  0  0  0  0  0
    3.3275   -4.8655   -4.9083 N   0  0  0  0  0  0  0  0  0  0  0  0
    3.3915   -6.0317   -4.3349 N   0  0  0  0  0  0  0  0  0  0  0  0
    2.3198   -6.7630   -4.1153 N   0  0  0  0  0  0  0  0  0  0  0  0
    1.0997   -6.3366   -4.4768 C   0  0  0  0  0  0  0  0  0  0  0  0
    0.9420   -5.0993   -5.0969 C   0  0  0  0  0  0  0  0  0  0  0  0
   -0.3472   -4.6701   -5.4992 C   0  0  0  0  0  0  0  0  0  0  0  0
   -1.4740   -5.4521   -5.2237 C   0  0  0  0  0  0  0  0  0  0  0  0
   -2.8075   -4.9757   -5.5932 C   0  0  0  0  0  0  0  0  0  0  0  0
   -2.9503   -3.9319   -6.2118 O   0  0  0  0  0  0  0  0  0  0  0  0
   -3.9838   -5.8290   -5.1745 C   0  0  0  0  0  0  0  0  0  0  0  0
   -5.0951   -5.6188   -5.6387 O   0  0  0  0  0  0  0  0  0  0  0  0
   -3.6693   -6.8763   -4.1308 C   0  0  1  0  0  0  0  0  0  0  0  0
   -2.3806   -7.5001   -4.2759 O   0  0  0  0  0  0  0  0  0  0  0  0
   -1.3376   -6.6731   -4.5901 C   0  0  0  0  0  0  0  0  0  0  0  0
   -0.0521   -7.1128   -4.2541 C   0  0  0  0  0  0  0  0  0  0  0  0
    0.0810   -8.3517   -3.6668 O   0  0  0  0  0  0  0  0  0  0  0  0
   -3.8406   -6.3379   -2.7390 C   0  0  1  0  0  0  0  0  0  0  0  0
   -3.0382   -5.1959   -2.3774 O   0  0  0  0  0  0  0  0  0  0  0  0
   -5.1853   -6.2919   -2.2471 O   0  0  0  0  0  0  0  0  0  0  0  0
   -4.3544   -7.1661   -1.6628 C   0  0  0  0  0  0  0  0  0  0  0  0
   -4.4385   -8.3711   -1.5170 O   0  0  0  0  0  0  0  0  0  0  0  0
    1.3055   -0.6157   -1.8406 C   0  0  0  0  0  0  0  0  0  0  0  0
    1.0719   -1.6622   -1.2535 O   0  0  0  0  0  0  0  0  0  0  0  0
    0.9790    0.7275   -1.2069 C   0  0  0  0  0  0  0  0  0  0  0  0
    0.5466    0.7827   -0.0666 O   0  0  0  0  0  0  0  0  0  0  0  0
    1.1561    2.0054   -2.0047 C   0  0  0  0  0  0  0  0  0  0  0  0
    1.2078    3.1066   -1.4871 O   0  0  0  0  0  0  0  0  0  0  0  0
  1  2  1  0  0  0  0
  2  3  2  0  0  0  0
  3  4  1  0  0  0  0
  3 51  1  0  0  0  0
  4  5  1  0  0  0  0
  5  6  1  6  0  0  0
  5 47  1  0  0  0  0
  6  7  1  0  0  0  0
  7  8  2  0  0  0  0
  7 12  1  0  0  0  0
  8  9  1  0  0  0  0
  8 25  1  0  0  0  0
  9 10  1  0  0  0  0
 10 11  2  0  0  0  0
 10 21  1  0  0  0  0
 11 12  1  0  0  0  0
 11 13  1  0  0  0  0
 13 14  1  0  0  0  0
 13 19  1  0  0  0  0
 14 15  1  0  0  0  0
 15 16  2  0  0  0  0
 15 17  1  0  0  0  0
 17 18  1  0  0  0  0
 18 19  1  0  0  0  0
 19 20  2  0  0  0  0
 20 21  1  0  0  0  0
 20 22  1  0  0  0  0
 22 23  1  0  0  0  0
 22 24  1  0  0  0  0
 23 24  1  0  0  0  0
 25 26  2  0  0  0  0
 25 30  1  0  0  0  0
 26 27  1  0  0  0  0
 27 28  2  0  0  0  0
 28 29  1  0  0  0  0
 29 30  2  0  0  0  0
 29 40  1  0  0  0  0
 30 31  1  0  0  0  0
 31 32  2  0  0  0  0
 32 33  1  0  0  0  0
 32 39  1  0  0  0  0
 33 34  2  0  0  0  0
 33 35  1  0  0  0  0
 35 36  2  0  0  0  0
 37 35  1  6  0  0  0
 37 38  1  0  0  0  0
 37 42  1  0  0  0  0
 38 39  1  0  0  0  0
 39 40  2  0  0  0  0
 40 41  1  0  0  0  0
 42 43  1  1  0  0  0
 42 44  1  0  0  0  0
 42 45  1  0  0  0  0
 44 45  1  0  0  0  0
 45 46  2  0  0  0  0
 47 48  2  0  0  0  0
 47 49  1  0  0  0  0
 49 50  2  0  0  0  0
 49 51  1  0  0  0  0
 51 52  2  0  0  0  0
M  CHG  1  21   1
M  END
$$$$