
 OpenBabel11252022263D

 54 62  0  0  1  0  0  0  0  0999 V2000
    1.7477    3.8675    0.0957 O   0  0  0  0  0  0  0  0  0  0  0  0
    2.6357    2.8204    0.1144 C   0  0  0  0  0  0  0  0  0  0  0  0
    2.9099    2.0845   -0.9690 C   0  0  0  0  0  0  0  0  0  0  0  0
    2.2759    2.3270   -2.1833 O   0  0  0  0  0  0  0  0  0  0  0  0
    3.2177    2.3987   -3.2351 C   0  0  2  0  0  0  0  0  0  0  0  0
    2.5752    2.7192   -4.5043 O   0  0  0  0  0  0  0  0  0  0  0  0
    2.4053    4.0584   -4.8087 C   0  0  0  0  0  0  0  0  0  0  0  0
    2.3938    4.4668   -6.0954 C   0  0  0  0  0  0  0  0  0  0  0  0
    2.2781    5.8246   -6.4513 O   0  0  0  0  0  0  0  0  0  0  0  0
    2.2336    6.8131   -5.4379 C   0  0  0  0  0  0  0  0  0  0  0  0
    2.1935    6.4625   -4.1375 C   0  0  0  0  0  0  0  0  0  0  0  0
    2.1943    5.0358   -3.6759 C   0  0  0  0  0  0  0  0  0  0  0  0
    2.1906    7.4836   -3.0248 C   0  0  3  0  0  0  0  0  0  0  0  0
    3.3986    7.3101   -2.3036 O   0  0  0  0  0  0  0  0  0  0  0  0
    3.6013    8.1454   -1.2472 C   0  0  0  0  0  0  0  0  0  0  0  0
    4.4464    7.8983   -0.4000 O   0  0  0  0  0  0  0  0  0  0  0  0
    2.7985    9.2332   -1.2039 O   0  0  0  0  0  0  0  0  0  0  0  0
    2.2796    9.8188   -2.3927 C   0  0  3  0  0  0  0  0  0  0  0  0
    2.2452    8.8669   -3.5380 C   0  0  0  0  0  0  0  0  0  0  0  0
    2.2772    9.1645   -4.8542 C   0  0  0  0  0  0  0  0  0  0  0  0
    2.2528    8.1488   -5.8057 O   0  3  0  0  0  0  0  0  0  0  0  0
    2.3612   10.5426   -5.4002 C   0  0  0  0  0  0  0  0  0  0  0  0
    3.4881   10.9292   -6.2007 O   0  0  0  0  0  0  0  0  0  0  0  0
    2.1962   10.7655   -6.8133 O   0  0  0  0  0  0  0  0  0  0  0  0
    0.9216   10.1501   -2.1876 O   0  0  0  0  0  0  0  0  0  0  0  0
    2.5764    3.5016   -7.2299 C   0  0  0  0  0  0  0  0  0  0  0  0
    3.8808    3.2060   -7.6530 C   0  0  0  0  0  0  0  0  0  0  0  0
    4.0820    2.3747   -8.6802 N   0  3  0  0  0  0  0  0  0  0  0  0
    5.3422    2.1174   -9.0886 F   0  0  0  0  0  0  0  0  0  0  0  0
    3.0844    1.8204   -9.3375 N   0  0  0  0  0  0  0  0  0  0  0  0
    1.8222    2.0420   -8.9295 C   0  0  0  0  0  0  0  0  0  0  0  0
    1.5208    2.8783   -7.8584 N   0  3  0  0  0  0  0  0  0  0  0  0
    0.2180    3.0197   -7.4749 C   0  0  0  0  0  0  0  0  0  0  0  0
   -0.8141    2.3405   -8.1283 C   0  0  0  0  0  0  0  0  0  0  0  0
   -2.1742    2.4604   -7.6347 C   0  0  0  0  0  0  0  0  0  0  0  0
   -2.3958    3.3280   -6.8072 O   0  0  0  0  0  0  0  0  0  0  0  0
   -3.2099    1.4844   -8.1524 C   0  0  0  0  0  0  0  0  0  0  0  0
   -4.3555    1.5617   -7.7422 O   0  0  0  0  0  0  0  0  0  0  0  0
   -2.6810    0.4252   -9.1084 C   0  0  1  0  0  0  0  0  0  0  0  0
   -1.5148    0.8314   -9.8675 O   0  0  0  0  0  0  0  0  0  0  0  0
   -0.5555    1.5396   -9.2095 C   0  0  0  0  0  0  0  0  0  0  0  0
    0.7680    1.4198   -9.6130 C   0  0  0  0  0  0  0  0  0  0  0  0
    1.0594    0.6404  -10.6643 F   0  0  0  0  0  0  0  0  0  0  0  0
   -2.4801   -0.9038   -8.4111 C   0  0  1  0  0  0  0  0  0  0  0  0
   -3.6432   -1.5094   -7.8301 O   0  0  0  0  0  0  0  0  0  0  0  0
   -1.5450   -1.8003   -9.0092 O   0  0  0  0  0  0  0  0  0  0  0  0
   -1.2014   -1.2923   -7.8092 C   0  0  0  0  0  0  0  0  0  0  0  0
   -0.2537   -0.6005   -7.4855 O   0  0  0  0  0  0  0  0  0  0  0  0
    3.9578    1.1010   -3.4762 C   0  0  0  0  0  0  0  0  0  0  0  0
    4.3908    0.7806   -4.5786 O   0  0  0  0  0  0  0  0  0  0  0  0
    4.1985    0.3173   -2.2023 C   0  0  0  0  0  0  0  0  0  0  0  0
    4.5587   -0.8429   -2.2644 O   0  0  0  0  0  0  0  0  0  0  0  0
    3.9603    1.0248   -0.8771 C   0  0  0  0  0  0  0  0  0  0  0  0
    4.6563    0.8225    0.0988 O   0  0  0  0  0  0  0  0  0  0  0  0
  1  2  1  0  0  0  0
  2  3  2  0  0  0  0
  3  4  1  0  0  0  0
  3 53  1  0  0  0  0
  4  5  1  0  0  0  0
  5  6  1  6  0  0  0
  5 49  1  0  0  0  0
  6  7  1  0  0  0  0
  7  8  2  0  0  0  0
  7 12  1  0  0  0  0
  8  9  1  0  0  0  0
  8 26  1  0  0  0  0
  9 10  1  0  0  0  0
 10 11  2  0  0  0  0
 10 21  1  0  0  0  0
 11 12  1  0  0  0  0
 11 13  1  0  0  0  0
 13 14  1  0  0  0  0
 13 19  1  0  0  0  0
 14 15  1  0  0  0  0
 15 16  2  0  0  0  0
 15 17  1  0  0  0  0
 17 18  1  0  0  0  0
 18 19  1  0  0  0  0
 18 25  1  0  0  0  0
 19 20  2  0  0  0  0
 20 21  1  0  0  0  0
 20 22  1  0  0  0  0
 22 23  1  0  0  0  0
 22 24  1  0  0  0  0
 23 24  1  0  0  0  0
 26 27  2  0  0  0  0
 26 32  1  0  0  0  0
 27 28  1  0  0  0  0
 28 29  1  0  0  0  0
 28 30  2  0  0  0  0
 30 31  1  0  0  0  0
 31 32  2  0  0  0  0
 31 42  1  0  0  0  0
 32 33  1  0  0  0  0
 33 34  2  0  0  0  0
 34 35  1  0  0  0  0
 34 41  1  0  0  0  0
 35 36  2  0  0  0  0
 35 37  1  0  0  0  0
 37 38  2  0  0  0  0
 39 37  1  1  0  0  0
 39 40  1  0  0  0  0
 39 44  1  0  0  0  0
 40 41  1  0  0  0  0
 41 42  2  0  0  0  0
 42 43  1  0  0  0  0
 44 45  1  1  0  0  0
 44 46  1  0  0  0  0
 44 47  1  0  0  0  0
 46 47  1  0  0  0  0
 47 48  2  0  0  0  0
 49 50  2  0  0  0  0
 49 51  1  0  0  0  0
 51 52  2  0  0  0  0
 51 53  1  0  0  0  0
 53 54  2  0  0  0  0
M  CHG  3  21   1  28   1  32   1
M  END
$$$$