
 OpenBabel11272002473D

 54 62  0  0  1  0  0  0  0  0999 V2000
   -1.8001    5.5008   -4.6371 O   0  0  0  0  0  0  0  0  0  0  0  0
   -1.4325    4.2321   -4.9861 C   0  0  0  0  0  0  0  0  0  0  0  0
   -0.1722    3.7811   -5.0295 C   0  0  0  0  0  0  0  0  0  0  0  0
    0.9462    4.5804   -4.8386 O   0  0  0  0  0  0  0  0  0  0  0  0
    1.9851    3.9875   -4.0493 C   0  0  2  0  0  0  0  0  0  0  0  0
    3.3070    4.6040   -4.2239 O   0  0  0  0  0  0  0  0  0  0  0  0
    3.4809    5.9841   -4.1091 C   0  0  0  0  0  0  0  0  0  0  0  0
    4.4586    6.6977   -4.7481 C   0  0  0  0  0  0  0  0  0  0  0  0
    4.5101    8.1172   -4.6386 O   0  0  0  0  0  0  0  0  0  0  0  0
    3.6221    8.8139   -3.8121 C   0  0  0  0  0  0  0  0  0  0  0  0
    2.7048    8.1517   -3.0911 C   0  0  0  0  0  0  0  0  0  0  0  0
    2.5240    6.6797   -3.1896 C   0  0  0  0  0  0  0  0  0  0  0  0
    1.6940    8.8319   -2.2238 C   0  0  3  0  0  0  0  0  0  0  0  0
    1.8984    8.4211   -0.8854 O   0  0  0  0  0  0  0  0  0  0  0  0
    1.1902    9.0782    0.0569 C   0  0  0  0  0  0  0  0  0  0  0  0
    1.1697    8.6249    1.2517 N   0  0  0  0  0  0  0  0  0  0  0  0
    0.5257   10.2059   -0.2805 O   0  0  0  0  0  0  0  0  0  0  0  0
    0.8426   10.8970   -1.3940 C   0  0  0  0  0  0  0  0  0  0  0  0
    0.3210   11.9557   -1.7090 O   0  0  0  0  0  0  0  0  0  0  0  0
    1.8522   10.2868   -2.2576 C   0  0  0  0  0  0  0  0  0  0  0  0
    2.7782   10.9335   -2.9979 C   0  0  0  0  0  0  0  0  0  0  0  0
    3.6819   10.1981   -3.7744 O   0  3  0  0  0  0  0  0  0  0  0  0
    2.9168   12.4107   -3.0537 C   0  0  0  0  0  0  0  0  0  0  0  0
    3.9302   13.0106   -3.8812 O   0  0  0  0  0  0  0  0  0  0  0  0
    2.5394   13.1412   -4.2288 O   0  0  0  0  0  0  0  0  0  0  0  0
    5.5114    6.1340   -5.6985 C   0  0  0  0  0  0  0  0  0  0  0  0
    5.1250    5.0516   -6.3982 N   0  0  0  0  0  0  0  0  0  0  0  0
    6.0024    4.5252   -7.2848 C   0  0  0  0  0  0  0  0  0  0  0  0
    5.6332    3.3955   -7.9018 F   0  0  0  0  0  0  0  0  0  0  0  0
    7.2510    5.0489   -7.5852 C   0  0  0  0  0  0  0  0  0  0  0  0
    7.6940    6.1715   -6.8930 C   0  0  0  0  0  0  0  0  0  0  0  0
    6.8179    6.6970   -5.9014 C   0  0  0  0  0  0  0  0  0  0  0  0
    7.3565    7.7083   -5.1117 C   0  0  0  0  0  0  0  0  0  0  0  0
    8.6557    8.1935   -5.3045 C   0  0  0  0  0  0  0  0  0  0  0  0
    9.1413    9.1410   -4.3215 C   0  0  0  0  0  0  0  0  0  0  0  0
    8.3879    9.8134   -3.6418 O   0  0  0  0  0  0  0  0  0  0  0  0
   10.6340    9.1859   -4.2311 C   0  0  0  0  0  0  0  0  0  0  0  0
   11.1940    9.0546   -3.1576 O   0  0  0  0  0  0  0  0  0  0  0  0
   11.2648    9.2888   -5.5978 C   0  0  1  0  0  0  0  0  0  0  0  0
   10.7640    8.2701   -6.5150 O   0  0  0  0  0  0  0  0  0  0  0  0
    9.5009    7.7603   -6.3110 C   0  0  0  0  0  0  0  0  0  0  0  0
    8.9985    6.7334   -7.1113 C   0  0  0  0  0  0  0  0  0  0  0  0
    9.7819    6.2134   -8.0728 F   0  0  0  0  0  0  0  0  0  0  0  0
   11.1132   10.7029   -6.1151 C   0  0  1  0  0  0  0  0  0  0  0  0
   11.6803   11.7457   -5.2921 O   0  0  0  0  0  0  0  0  0  0  0  0
   11.2636   10.8993   -7.5218 O   0  0  0  0  0  0  0  0  0  0  0  0
   10.0507   11.1070   -7.0099 C   0  0  0  0  0  0  0  0  0  0  0  0
    8.9533   10.6155   -7.2525 O   0  0  0  0  0  0  0  0  0  0  0  0
    2.1476    2.4675   -4.2512 C   0  0  0  0  0  0  0  0  0  0  0  0
    2.8262    1.7883   -3.4749 O   0  0  0  0  0  0  0  0  0  0  0  0
    1.3782    1.8403   -5.3934 C   0  0  3  0  0  0  0  0  0  0  0  0
   -0.0289    2.3426   -5.4085 C   0  0  0  0  0  0  0  0  0  0  0  0
   -0.9837    1.6651   -5.7832 O   0  0  0  0  0  0  0  0  0  0  0  0
    1.9495    2.0706   -6.6105 F   0  0  0  0  0  0  0  0  0  0  0  0
  1  2  1  0  0  0  0
  2  3  2  0  0  0  0
  3  4  1  0  0  0  0
  3 52  1  0  0  0  0
  4  5  1  0  0  0  0
  5  6  1  6  0  0  0
  5 49  1  0  0  0  0
  6  7  1  0  0  0  0
  7  8  2  0  0  0  0
  7 12  1  0  0  0  0
  8  9  1  0  0  0  0
  8 26  1  0  0  0  0
  9 10  1  0  0  0  0
 10 11  2  0  0  0  0
 10 22  1  0  0  0  0
 11 12  1  0  0  0  0
 11 13  1  0  0  0  0
 13 14  1  0  0  0  0
 13 20  1  0  0  0  0
 14 15  1  0  0  0  0
 15 16  2  0  0  0  0
 15 17  1  0  0  0  0
 17 18  1  0  0  0  0
 18 19  2  0  0  0  0
 18 20  1  0  0  0  0
 20 21  2  0  0  0  0
 21 22  1  0  0  0  0
 21 23  1  0  0  0  0
 23 24  1  0  0  0  0
 23 25  1  0  0  0  0
 24 25  1  0  0  0  0
 26 27  2  0  0  0  0
 26 32  1  0  0  0  0
 27 28  1  0  0  0  0
 28 29  1  0  0  0  0
 28 30  2  0  0  0  0
 30 31  1  0  0  0  0
 31 32  2  0  0  0  0
 31 42  1  0  0  0  0
 32 33  1  0  0  0  0
 33 34  2  0  0  0  0
 34 35  1  0  0  0  0
 34 41  1  0  0  0  0
 35 36  2  0  0  0  0
 35 37  1  0  0  0  0
 37 38  2  0  0  0  0
 39 37  1  1  0  0  0
 39 40  1  0  0  0  0
 39 44  1  0  0  0  0
 40 41  1  0  0  0  0
 41 42  2  0  0  0  0
 42 43  1  0  0  0  0
 44 45  1  1  0  0  0
 44 46  1  0  0  0  0
 44 47  1  0  0  0  0
 46 47  1  0  0  0  0
 47 48  2  0  0  0  0
 49 50  2  0  0  0  0
 49 51  1  0  0  0  0
 51 52  1  0  0  0  0
 51 54  1  0  0  0  0
 52 53  2  0  0  0  0
M  CHG  1  22   1
M  END
$$$$