
 OpenBabel11232002323D

 53 62  0  0  1  0  0  0  0  0999 V2000
   18.7013   -0.7489    1.6002 O   0  0  0  0  0  0  0  0  0  0  0  0
   18.8183   -1.9630    0.9742 C   0  0  0  0  0  0  0  0  0  0  0  0
   18.0214   -2.3417   -0.0338 C   0  0  0  0  0  0  0  0  0  0  0  0
   17.0104   -1.5137   -0.4926 O   0  0  0  0  0  0  0  0  0  0  0  0
   16.3825   -1.8793   -1.7174 C   0  0  2  0  0  0  0  0  0  0  0  0
   15.2793   -0.9772   -1.9980 O   0  0  0  0  0  0  0  0  0  0  0  0
   15.5823    0.1731   -2.7262 C   0  0  0  0  0  0  0  0  0  0  0  0
   14.6486    0.8236   -3.4669 C   0  0  0  0  0  0  0  0  0  0  0  0
   14.9850    1.9075   -4.2981 O   0  0  0  0  0  0  0  0  0  0  0  0
   16.3353    2.2182   -4.5072 C   0  0  0  0  0  0  0  0  0  0  0  0
   17.3062    1.6780   -3.7545 C   0  0  0  0  0  0  0  0  0  0  0  0
   17.0040    0.7044   -2.6735 C   0  0  0  0  0  0  0  0  0  0  0  0
   18.7609    2.0145   -3.9830 C   0  0  3  0  0  0  0  0  0  0  0  0
   19.4788    0.7646   -4.2205 N   0  0  0  0  0  0  0  0  0  0  0  0
   20.8110    0.8656   -4.4371 C   0  0  0  0  0  0  0  0  0  0  0  0
   21.6643    0.0635   -3.9166 N   0  0  0  0  0  0  0  0  0  0  0  0
   21.1718    1.8329   -5.3037 N   0  0  0  0  0  0  0  0  0  0  0  0
   20.4868    3.1052   -5.4066 C   0  0  0  0  0  0  0  0  0  0  0  0
   19.0163    2.9000   -5.1696 C   0  0  0  0  0  0  0  0  0  0  0  0
   17.9857    3.3993   -5.8928 C   0  0  0  0  0  0  0  0  0  0  0  0
   16.6748    3.0880   -5.5188 N   0  0  0  0  0  0  0  0  0  0  0  0
   18.1496    4.2596   -7.0902 C   0  0  0  0  0  0  0  0  0  0  0  0
   17.1791    5.2606   -7.4427 O   0  0  0  0  0  0  0  0  0  0  0  0
   18.4892    5.6513   -6.9871 O   0  0  0  0  0  0  0  0  0  0  0  0
   13.1838    0.5240   -3.4357 C   0  0  0  0  0  0  0  0  0  0  0  0
   12.4079    1.2112   -2.5062 C   0  0  0  0  0  0  0  0  0  0  0  0
   11.0862    1.0082   -2.4222 N   0  3  0  0  0  0  0  0  0  0  0  0
   10.3710    1.7060   -1.5179 F   0  0  0  0  0  0  0  0  0  0  0  0
   10.4406    0.1493   -3.1897 N   0  0  0  0  0  0  0  0  0  0  0  0
   11.1078   -0.5361   -4.1210 C   0  0  0  0  0  0  0  0  0  0  0  0
   12.5005   -0.3640   -4.3004 C   0  0  0  0  0  0  0  0  0  0  0  0
   13.1121   -1.0510   -5.3655 C   0  0  0  0  0  0  0  0  0  0  0  0
   12.3603   -1.8623   -6.2313 C   0  0  0  0  0  0  0  0  0  0  0  0
   11.0153   -2.1197   -5.9943 C   0  0  0  0  0  0  0  0  0  0  0  0
   10.4058   -1.4301   -4.9482 C   0  0  0  0  0  0  0  0  0  0  0  0
    9.0874   -1.5952   -4.7431 F   0  0  0  0  0  0  0  0  0  0  0  0
   10.2594   -2.9761   -6.7730 O   0  0  0  0  0  0  0  0  0  0  0  0
   11.0599   -3.8820   -7.5873 C   0  0  1  0  0  0  0  0  0  0  0  0
   12.1309   -3.2339   -8.3467 C   0  0  0  0  0  0  0  0  0  0  0  0
   12.4048   -3.3761   -9.6009 N   0  0  0  0  0  0  0  0  0  0  0  0
   12.9538   -2.3289   -7.4876 C   0  0  0  0  0  0  0  0  0  0  0  0
   14.1180   -1.9309   -7.8950 N   0  0  0  0  0  0  0  0  0  0  0  0
   11.4800   -5.0622   -6.9373 O   0  0  0  0  0  0  0  0  0  0  0  0
   10.5382   -5.2155   -8.0413 C   0  0  1  0  0  0  0  0  0  0  0  0
    8.9667   -5.2759   -7.6615 O   0  0  0  0  0  0  0  0  0  0  0  0
    9.7321   -6.3141   -7.7120 C   0  0  0  0  0  0  0  0  0  0  0  0
    9.6800   -7.5587   -7.5881 N   0  0  0  0  0  0  0  0  0  0  0  0
   15.9090   -3.3205   -1.7016 C   0  0  0  0  0  0  0  0  0  0  0  0
   14.8079   -3.7114   -2.0591 O   0  0  0  0  0  0  0  0  0  0  0  0
   17.0103   -4.2716   -1.2879 C   0  0  0  0  0  0  0  0  0  0  0  0
   16.9300   -5.4595   -1.5525 O   0  0  0  0  0  0  0  0  0  0  0  0
   18.2175   -3.7216   -0.5564 C   0  0  0  0  0  0  0  0  0  0  0  0
   19.2423   -4.3673   -0.4192 O   0  0  0  0  0  0  0  0  0  0  0  0
  1  2  1  0  0  0  0
  2  3  2  0  0  0  0
  3  4  1  0  0  0  0
  3 52  1  0  0  0  0
  4  5  1  0  0  0  0
  5  6  1  1  0  0  0
  5 48  1  0  0  0  0
  6  7  1  0  0  0  0
  7  8  2  0  0  0  0
  7 12  1  0  0  0  0
  8  9  1  0  0  0  0
  8 25  1  0  0  0  0
  9 10  1  0  0  0  0
 10 11  2  0  0  0  0
 10 21  1  0  0  0  0
 11 12  1  0  0  0  0
 11 13  1  0  0  0  0
 13 14  1  0  0  0  0
 13 19  1  0  0  0  0
 14 15  1  0  0  0  0
 15 16  2  0  0  0  0
 15 17  1  0  0  0  0
 17 18  1  0  0  0  0
 18 19  1  0  0  0  0
 19 20  2  0  0  0  0
 20 21  1  0  0  0  0
 20 22  1  0  0  0  0
 22 23  1  0  0  0  0
 22 24  1  0  0  0  0
 23 24  1  0  0  0  0
 25 26  2  0  0  0  0
 25 31  1  0  0  0  0
 26 27  1  0  0  0  0
 27 28  1  0  0  0  0
 27 29  2  0  0  0  0
 29 30  1  0  0  0  0
 30 31  2  0  0  0  0
 30 35  1  0  0  0  0
 31 32  1  0  0  0  0
 32 33  2  0  0  0  0
 33 34  1  0  0  0  0
 33 41  1  0  0  0  0
 34 35  2  0  0  0  0
 34 37  1  0  0  0  0
 35 36  1  0  0  0  0
 38 37  1  1  0  0  0
 38 39  1  0  0  0  0
 38 43  1  0  0  0  0
 38 44  1  0  0  0  0
 39 40  2  0  0  0  0
 39 41  1  0  0  0  0
 41 42  2  0  0  0  0
 44 43  1  1  0  0  0
 44 45  1  0  0  0  0
 44 46  1  0  0  0  0
 45 46  1  0  0  0  0
 46 47  2  0  0  0  0
 48 49  2  0  0  0  0
 48 50  1  0  0  0  0
 50 51  2  0  0  0  0
 50 52  1  0  0  0  0
 52 53  2  0  0  0  0
M  CHG  1  27   1
M  END
$$$$