
 OpenBabel11262001033D

 54 62  0  0  1  0  0  0  0  0999 V2000
   -2.7508    2.7688   -3.6182 O   0  0  0  0  0  0  0  0  0  0  0  0
   -2.3113    1.8480   -2.7006 C   0  0  0  0  0  0  0  0  0  0  0  0
   -1.0206    1.7001   -2.3737 C   0  0  0  0  0  0  0  0  0  0  0  0
   -0.0562    2.4794   -2.9895 O   0  0  0  0  0  0  0  0  0  0  0  0
    1.2920    2.3571   -2.5394 C   0  0  2  0  0  0  0  0  0  0  0  0
    2.1968    2.6965   -3.6404 O   0  0  0  0  0  0  0  0  0  0  0  0
    2.0972    3.9719   -4.1767 C   0  0  0  0  0  0  0  0  0  0  0  0
    2.3814    4.1940   -5.4777 C   0  0  0  0  0  0  0  0  0  0  0  0
    2.4097    5.4905   -6.0312 O   0  0  0  0  0  0  0  0  0  0  0  0
    2.2368    6.6187   -5.1876 C   0  0  0  0  0  0  0  0  0  0  0  0
    1.9829    6.4608   -3.8702 C   0  0  0  0  0  0  0  0  0  0  0  0
    1.7925    5.1124   -3.2393 C   0  0  0  0  0  0  0  0  0  0  0  0
    1.8547    7.6358   -2.9206 C   0  0  3  0  0  0  0  0  0  0  0  0
    2.8731    7.5161   -1.9412 O   0  0  0  0  0  0  0  0  0  0  0  0
    3.0290    8.5692   -1.1040 C   0  0  0  0  0  0  0  0  0  0  0  0
    3.7099    8.4253   -0.0345 N   0  0  0  0  0  0  0  0  0  0  0  0
    2.4705    9.7556   -1.4208 O   0  0  0  0  0  0  0  0  0  0  0  0
    2.0672   10.0293   -2.6730 C   0  0  0  0  0  0  0  0  0  0  0  0
    1.6642   11.1224   -3.0388 O   0  0  0  0  0  0  0  0  0  0  0  0
    2.0809    8.9093   -3.6129 C   0  0  0  0  0  0  0  0  0  0  0  0
    2.2933    9.0311   -4.9389 C   0  0  0  0  0  0  0  0  0  0  0  0
    2.3439    7.8906   -5.7388 O   0  3  0  0  0  0  0  0  0  0  0  0
    2.5737   10.3141   -5.6356 C   0  0  0  0  0  0  0  0  0  0  0  0
    3.9258   10.7445   -5.8403 O   0  0  0  0  0  0  0  0  0  0  0  0
    3.1405   10.2952   -6.9601 O   0  0  0  0  0  0  0  0  0  0  0  0
    2.7996    3.0630   -6.3726 C   0  0  0  0  0  0  0  0  0  0  0  0
    4.1756    2.7695   -6.4632 C   0  0  0  0  0  0  0  0  0  0  0  0
    4.5998    1.7146   -7.1734 N   0  3  0  0  0  0  0  0  0  0  0  0
    5.9236    1.4605   -7.2450 F   0  0  0  0  0  0  0  0  0  0  0  0
    3.7519    0.8955   -7.8048 C   0  0  0  0  0  0  0  0  0  0  0  0
    2.3735    1.1389   -7.7471 C   0  0  0  0  0  0  0  0  0  0  0  0
    1.9000    2.2398   -7.0304 N   0  3  0  0  0  0  0  0  0  0  0  0
    0.5486    2.4558   -7.0143 C   0  0  0  0  0  0  0  0  0  0  0  0
   -0.3407    1.6078   -7.6857 C   0  0  0  0  0  0  0  0  0  0  0  0
   -1.7594    1.9217   -7.6800 C   0  0  0  0  0  0  0  0  0  0  0  0
   -2.0971    3.0245   -7.2843 O   0  0  0  0  0  0  0  0  0  0  0  0
   -2.7168    0.8799   -8.2151 C   0  0  0  0  0  0  0  0  0  0  0  0
   -3.8929    1.1662   -8.3637 O   0  0  0  0  0  0  0  0  0  0  0  0
   -2.0945   -0.4763   -8.4924 C   0  0  1  0  0  0  0  0  0  0  0  0
   -0.7264   -0.4011   -8.9695 O   0  0  0  0  0  0  0  0  0  0  0  0
    0.1007    0.4993   -8.3682 C   0  0  0  0  0  0  0  0  0  0  0  0
    1.4696    0.2852   -8.4087 C   0  0  0  0  0  0  0  0  0  0  0  0
    1.9567   -0.7705   -9.0755 F   0  0  0  0  0  0  0  0  0  0  0  0
   -2.2589   -1.4167   -7.3183 C   0  0  1  0  0  0  0  0  0  0  0  0
   -3.6035   -1.7128   -6.9162 O   0  0  0  0  0  0  0  0  0  0  0  0
   -1.3364   -2.5040   -7.2442 O   0  0  0  0  0  0  0  0  0  0  0  0
   -1.2397   -1.5706   -6.2740 C   0  0  0  0  0  0  0  0  0  0  0  0
   -0.3220   -0.8409   -5.9715 O   0  0  0  0  0  0  0  0  0  0  0  0
    1.6500    0.9450   -2.0945 C   0  0  3  0  0  0  0  0  0  0  0  0
    0.7489    0.4999   -0.9679 C   0  0  3  0  0  0  0  0  0  0  0  0
   -0.6952    0.6346   -1.3656 C   0  0  0  0  0  0  0  0  0  0  0  0
   -1.5822   -0.0422   -0.8525 O   0  0  0  0  0  0  0  0  0  0  0  0
    1.0932   -0.7742   -0.6300 F   0  0  0  0  0  0  0  0  0  0  0  0
    1.5101    0.1238   -3.1807 F   0  0  0  0  0  0  0  0  0  0  0  0
  1  2  1  0  0  0  0
  2  3  2  0  0  0  0
  3  4  1  0  0  0  0
  3 51  1  0  0  0  0
  4  5  1  0  0  0  0
  5  6  1  6  0  0  0
  5 49  1  0  0  0  0
  6  7  1  0  0  0  0
  7  8  2  0  0  0  0
  7 12  1  0  0  0  0
  8  9  1  0  0  0  0
  8 26  1  0  0  0  0
  9 10  1  0  0  0  0
 10 11  2  0  0  0  0
 10 22  1  0  0  0  0
 11 12  1  0  0  0  0
 11 13  1  0  0  0  0
 13 14  1  0  0  0  0
 13 20  1  0  0  0  0
 14 15  1  0  0  0  0
 15 16  2  0  0  0  0
 15 17  1  0  0  0  0
 17 18  1  0  0  0  0
 18 19  2  0  0  0  0
 18 20  1  0  0  0  0
 20 21  2  0  0  0  0
 21 22  1  0  0  0  0
 21 23  1  0  0  0  0
 23 24  1  0  0  0  0
 23 25  1  0  0  0  0
 24 25  1  0  0  0  0
 26 27  2  0  0  0  0
 26 32  1  0  0  0  0
 27 28  1  0  0  0  0
 28 29  1  0  0  0  0
 28 30  2  0  0  0  0
 30 31  1  0  0  0  0
 31 32  2  0  0  0  0
 31 42  1  0  0  0  0
 32 33  1  0  0  0  0
 33 34  2  0  0  0  0
 34 35  1  0  0  0  0
 34 41  1  0  0  0  0
 35 36  2  0  0  0  0
 35 37  1  0  0  0  0
 37 38  2  0  0  0  0
 39 37  1  1  0  0  0
 39 40  1  0  0  0  0
 39 44  1  0  0  0  0
 40 41  1  0  0  0  0
 41 42  2  0  0  0  0
 42 43  1  0  0  0  0
 44 45  1  1  0  0  0
 44 46  1  0  0  0  0
 44 47  1  0  0  0  0
 46 47  1  0  0  0  0
 47 48  2  0  0  0  0
 49 50  1  0  0  0  0
 49 54  1  0  0  0  0
 50 51  1  0  0  0  0
 50 53  1  0  0  0  0
 51 52  2  0  0  0  0
M  CHG  3  22   1  28   1  32   1
M  END
$$$$