
 OpenBabel11212020243D

 53 61  0  0  1  0  0  0  0  0999 V2000
   -0.1761   -0.0602    6.4748 O   0  0  0  0  0  0  0  0  0  0  0  0
    0.2898   -0.8483    5.4554 C   0  0  0  0  0  0  0  0  0  0  0  0
    0.8286   -0.3404    4.3394 C   0  0  0  0  0  0  0  0  0  0  0  0
    0.9267    1.0261    4.1538 O   0  0  0  0  0  0  0  0  0  0  0  0
    2.1346    1.4099    3.4967 C   0  0  2  0  0  0  0  0  0  0  0  0
    2.2987    2.8289    3.5117 O   0  0  0  0  0  0  0  0  0  0  0  0
    2.4584    3.4140    4.7639 C   0  0  0  0  0  0  0  0  0  0  0  0
    2.0101    4.6642    5.0034 C   0  0  0  0  0  0  0  0  0  0  0  0
    2.1860    5.3270    6.2114 O   0  0  0  0  0  0  0  0  0  0  0  0
    2.8813    4.6929    7.2319 C   0  0  0  0  0  0  0  0  0  0  0  0
    3.3739    3.4526    7.0846 C   0  0  0  0  0  0  0  0  0  0  0  0
    3.2073    2.6590    5.8360 C   0  0  0  0  0  0  0  0  0  0  0  0
    4.1144    2.8481    8.2270 C   0  0  0  0  0  0  0  0  0  0  0  0
    4.5828    1.6452    8.1531 N   0  0  0  0  0  0  0  0  0  0  0  0
    5.2562    1.1183    9.2388 C   0  0  0  0  0  0  0  0  0  0  0  0
    5.6235   -0.0477    9.1778 O   0  0  0  0  0  0  0  0  0  0  0  0
    5.5334    1.8379   10.3862 N   0  0  0  0  0  0  0  0  0  0  0  0
    5.0821    3.0397   10.4835 C   0  0  0  0  0  0  0  0  0  0  0  0
    4.2931    3.6810    9.4344 C   0  0  0  0  0  0  0  0  0  0  0  0
    3.7577    4.9162    9.4890 C   0  0  0  0  0  0  0  0  0  0  0  0
    3.0438    5.3934    8.3999 N   0  0  0  0  0  0  0  0  0  0  0  0
    3.8747    5.8317   10.6457 C   0  0  0  0  0  0  0  0  0  0  0  0
    5.0289    6.6651   10.8274 O   0  0  0  0  0  0  0  0  0  0  0  0
    3.7560    7.2577   10.5035 O   0  0  0  0  0  0  0  0  0  0  0  0
    1.2759    5.4398    3.9892 C   0  0  0  0  0  0  0  0  0  0  0  0
    2.0171    6.2197    3.1049 C   0  0  0  0  0  0  0  0  0  0  0  0
    1.3419    6.8786    2.1037 C   0  0  0  0  0  0  0  0  0  0  0  0
    2.0468    7.6406    1.2555 F   0  0  0  0  0  0  0  0  0  0  0  0
    0.0116    6.8100    1.9142 N   0  0  0  0  0  0  0  0  0  0  0  0
   -0.7159    6.0407    2.7485 C   0  0  0  0  0  0  0  0  0  0  0  0
   -0.1307    5.3551    3.8407 C   0  0  0  0  0  0  0  0  0  0  0  0
   -0.9584    4.6114    4.7079 C   0  0  0  0  0  0  0  0  0  0  0  0
   -2.3232    4.4855    4.4523 C   0  0  0  0  0  0  0  0  0  0  0  0
   -3.1610    3.6732    5.3333 C   0  0  0  0  0  0  0  0  0  0  0  0
   -2.8347    3.4004    6.4773 O   0  0  0  0  0  0  0  0  0  0  0  0
   -4.4376    3.1360    4.7413 C   0  0  0  0  0  0  0  0  0  0  0  0
   -5.0280    2.1971    5.2655 O   0  0  0  0  0  0  0  0  0  0  0  0
   -4.8117    3.6890    3.3848 C   0  0  1  0  0  0  0  0  0  0  0  0
   -4.2079    4.9229    2.9920 O   0  0  0  0  0  0  0  0  0  0  0  0
   -2.8921    5.0884    3.3426 C   0  0  0  0  0  0  0  0  0  0  0  0
   -2.1034    5.9205    2.5271 C   0  0  0  0  0  0  0  0  0  0  0  0
   -2.6620    6.4424    1.3264 N   0  0  0  0  0  0  0  0  0  0  0  0
   -4.6705    2.5849    2.3634 C   0  0  1  0  0  0  0  0  0  0  0  0
   -5.5782    1.4655    2.5019 O   0  0  0  0  0  0  0  0  0  0  0  0
   -4.3442    2.9808    1.0201 O   0  0  0  0  0  0  0  0  0  0  0  0
   -3.4209    2.2877    1.6924 C   0  0  0  0  0  0  0  0  0  0  0  0
   -2.2688    2.4890    2.0110 O   0  0  0  0  0  0  0  0  0  0  0  0
    2.1271    0.8789    2.0718 C   0  0  0  0  0  0  0  0  0  0  0  0
    2.4394    1.4940    1.0641 O   0  0  0  0  0  0  0  0  0  0  0  0
    1.7839   -0.5929    2.0222 C   0  0  0  0  0  0  0  0  0  0  0  0
    1.9154   -1.2297    0.9889 O   0  0  0  0  0  0  0  0  0  0  0  0
    1.3120   -1.2812    3.2903 C   0  0  0  0  0  0  0  0  0  0  0  0
    1.3749   -2.4910    3.4309 O   0  0  0  0  0  0  0  0  0  0  0  0
  1  2  1  0  0  0  0
  2  3  2  0  0  0  0
  3  4  1  0  0  0  0
  3 52  1  0  0  0  0
  4  5  1  0  0  0  0
  5  6  1  6  0  0  0
  5 48  1  0  0  0  0
  6  7  1  0  0  0  0
  7  8  2  0  0  0  0
  7 12  1  0  0  0  0
  8  9  1  0  0  0  0
  8 25  1  0  0  0  0
  9 10  1  0  0  0  0
 10 11  2  0  0  0  0
 10 21  1  0  0  0  0
 11 12  1  0  0  0  0
 11 13  1  0  0  0  0
 13 14  2  0  0  0  0
 13 19  1  0  0  0  0
 14 15  1  0  0  0  0
 15 16  2  0  0  0  0
 15 17  1  0  0  0  0
 17 18  2  0  0  0  0
 18 19  1  0  0  0  0
 19 20  2  0  0  0  0
 20 21  1  0  0  0  0
 20 22  1  0  0  0  0
 22 23  1  0  0  0  0
 22 24  1  0  0  0  0
 23 24  1  0  0  0  0
 25 26  2  0  0  0  0
 25 31  1  0  0  0  0
 26 27  1  0  0  0  0
 27 28  1  0  0  0  0
 27 29  2  0  0  0  0
 29 30  1  0  0  0  0
 30 31  2  0  0  0  0
 30 41  1  0  0  0  0
 31 32  1  0  0  0  0
 32 33  2  0  0  0  0
 33 34  1  0  0  0  0
 33 40  1  0  0  0  0
 34 35  2  0  0  0  0
 34 36  1  0  0  0  0
 36 37  2  0  0  0  0
 38 36  1  1  0  0  0
 38 39  1  0  0  0  0
 38 43  1  0  0  0  0
 39 40  1  0  0  0  0
 40 41  2  0  0  0  0
 41 42  1  0  0  0  0
 43 44  1  1  0  0  0
 43 45  1  0  0  0  0
 43 46  1  0  0  0  0
 45 46  1  0  0  0  0
 46 47  2  0  0  0  0
 48 49  2  0  0  0  0
 48 50  1  0  0  0  0
 50 51  2  0  0  0  0
 50 52  1  0  0  0  0
 52 53  2  0  0  0  0
M  END
$$$$