
 OpenBabel11142002193D

 51 59  0  0  1  0  0  0  0  0999 V2000
    2.9264    5.8766   -0.6791 O   0  0  0  0  0  0  0  0  0  0  0  0
    3.6622    4.8683   -0.1056 C   0  0  0  0  0  0  0  0  0  0  0  0
    3.6711    3.6088   -0.5637 C   0  0  0  0  0  0  0  0  0  0  0  0
    2.9040    3.2307   -1.6423 O   0  0  0  0  0  0  0  0  0  0  0  0
    3.6108    2.4015   -2.5719 C   0  0  2  0  0  0  0  0  0  0  0  0
    2.8972    2.2582   -3.8087 O   0  0  0  0  0  0  0  0  0  0  0  0
    2.7229    3.4286   -4.5511 C   0  0  0  0  0  0  0  0  0  0  0  0
    2.6010    3.4146   -5.8965 C   0  0  0  0  0  0  0  0  0  0  0  0
    2.3938    4.5665   -6.6594 O   0  0  0  0  0  0  0  0  0  0  0  0
    2.3534    5.8013   -6.0238 C   0  0  0  0  0  0  0  0  0  0  0  0
    2.4752    5.9204   -4.6942 C   0  0  0  0  0  0  0  0  0  0  0  0
    2.6261    4.7370   -3.8150 C   0  0  0  0  0  0  0  0  0  0  0  0
    2.4596    7.2625   -4.0190 C   0  0  3  0  0  0  0  0  0  0  0  0
    3.6453    7.4023   -3.2382 O   0  0  0  0  0  0  0  0  0  0  0  0
    3.6533    8.4897   -2.4270 C   0  0  0  0  0  0  0  0  0  0  0  0
    4.2448    8.5012   -1.3558 O   0  0  0  0  0  0  0  0  0  0  0  0
    2.8962    9.5321   -2.8624 O   0  0  0  0  0  0  0  0  0  0  0  0
    2.6950    9.7044   -4.2773 C   0  0  0  0  0  0  0  0  0  0  0  0
    2.4528    8.4092   -4.9677 C   0  0  0  0  0  0  0  0  0  0  0  0
    2.3225    8.2228   -6.3007 C   0  0  0  0  0  0  0  0  0  0  0  0
    2.2004    6.9287   -6.7950 N   0  0  0  0  0  0  0  0  0  0  0  0
    2.3211    9.3158   -7.2943 C   0  0  0  0  0  0  0  0  0  0  0  0
    3.4442   10.1960   -7.4607 O   0  0  0  0  0  0  0  0  0  0  0  0
    3.1074    9.2510   -8.4947 O   0  0  0  0  0  0  0  0  0  0  0  0
    2.7158    2.1780   -6.6871 C   0  0  0  0  0  0  0  0  0  0  0  0
    3.9760    1.9022   -7.0927 N   0  0  0  0  0  0  0  0  0  0  0  0
    4.1350    0.7594   -7.7639 C   0  0  0  0  0  0  0  0  0  0  0  0
    3.1734   -0.1253   -8.0560 N   0  0  0  0  0  0  0  0  0  0  0  0
    1.9346    0.1650   -7.6488 C   0  0  0  0  0  0  0  0  0  0  0  0
    1.6175    1.3446   -6.9588 C   0  0  0  0  0  0  0  0  0  0  0  0
    0.2688    1.6006   -6.6023 C   0  0  0  0  0  0  0  0  0  0  0  0
   -0.7286    0.6688   -6.9031 C   0  0  0  0  0  0  0  0  0  0  0  0
   -0.4006   -0.5273   -7.5274 C   0  0  0  0  0  0  0  0  0  0  0  0
    0.9219   -0.7507   -7.9158 C   0  0  0  0  0  0  0  0  0  0  0  0
   -1.2865   -1.5313   -7.8093 O   0  0  0  0  0  0  0  0  0  0  0  0
   -2.5467   -1.4846   -7.1280 C   0  0  2  0  0  0  0  0  0  0  0  0
   -3.1336   -0.1004   -7.0003 C   0  0  0  0  0  0  0  0  0  0  0  0
   -4.3097    0.1751   -7.1913 O   0  0  0  0  0  0  0  0  0  0  0  0
   -2.1342    0.9549   -6.5886 C   0  0  0  0  0  0  0  0  0  0  0  0
   -2.4890    1.9955   -6.0594 O   0  0  0  0  0  0  0  0  0  0  0  0
   -2.4618   -2.1565   -5.7931 C   0  0  1  0  0  0  0  0  0  0  0  0
   -1.5418   -1.5815   -4.8348 O   0  0  0  0  0  0  0  0  0  0  0  0
   -3.7265   -2.5620   -5.2626 O   0  0  0  0  0  0  0  0  0  0  0  0
   -2.8507   -3.5438   -5.5483 C   0  0  0  0  0  0  0  0  0  0  0  0
   -2.3653   -4.3803   -4.8205 O   0  0  0  0  0  0  0  0  0  0  0  0
    3.7855    1.0825   -1.8232 C   0  0  0  0  0  0  0  0  0  0  0  0
    3.4268   -0.0060   -2.2757 O   0  0  0  0  0  0  0  0  0  0  0  0
    4.5388    1.2037   -0.5116 C   0  0  3  0  0  0  0  0  0  0  0  0
    4.4910    2.5760    0.1305 C   0  0  0  0  0  0  0  0  0  0  0  0
    5.1065    2.8435    1.1615 O   0  0  0  0  0  0  0  0  0  0  0  0
    4.1522    0.2406    0.3787 F   0  0  0  0  0  0  0  0  0  0  0  0
  1  2  1  0  0  0  0
  2  3  2  0  0  0  0
  3  4  1  0  0  0  0
  3 49  1  0  0  0  0
  4  5  1  0  0  0  0
  5  6  1  6  0  0  0
  5 46  1  0  0  0  0
  6  7  1  0  0  0  0
  7  8  2  0  0  0  0
  7 12  1  0  0  0  0
  8  9  1  0  0  0  0
  8 25  1  0  0  0  0
  9 10  1  0  0  0  0
 10 11  2  0  0  0  0
 10 21  1  0  0  0  0
 11 12  1  0  0  0  0
 11 13  1  0  0  0  0
 13 14  1  0  0  0  0
 13 19  1  0  0  0  0
 14 15  1  0  0  0  0
 15 16  2  0  0  0  0
 15 17  1  0  0  0  0
 17 18  1  0  0  0  0
 18 19  1  0  0  0  0
 19 20  2  0  0  0  0
 20 21  1  0  0  0  0
 20 22  1  0  0  0  0
 22 23  1  0  0  0  0
 22 24  1  0  0  0  0
 23 24  1  0  0  0  0
 25 26  2  0  0  0  0
 25 30  1  0  0  0  0
 26 27  1  0  0  0  0
 27 28  2  0  0  0  0
 28 29  1  0  0  0  0
 29 30  2  0  0  0  0
 29 34  1  0  0  0  0
 30 31  1  0  0  0  0
 31 32  2  0  0  0  0
 32 33  1  0  0  0  0
 32 39  1  0  0  0  0
 33 34  2  0  0  0  0
 33 35  1  0  0  0  0
 36 35  1  1  0  0  0
 36 37  1  0  0  0  0
 36 41  1  0  0  0  0
 37 38  2  0  0  0  0
 37 39  1  0  0  0  0
 39 40  2  0  0  0  0
 41 42  1  1  0  0  0
 41 43  1  0  0  0  0
 41 44  1  0  0  0  0
 43 44  1  0  0  0  0
 44 45  2  0  0  0  0
 46 47  2  0  0  0  0
 46 48  1  0  0  0  0
 48 49  1  0  0  0  0
 48 51  1  0  0  0  0
 49 50  2  0  0  0  0
M  END
$$$$