
 OpenBabel09252023023D

 48 55  0  0  1  0  0  0  0  0999 V2000
    6.4002    4.2968    3.5666 O   0  0  0  0  0  0  0  0  0  0  0  0
    6.5096    3.4142    2.5253 C   0  0  0  0  0  0  0  0  0  0  0  0
    5.4395    2.8970    1.9077 C   0  0  0  0  0  0  0  0  0  0  0  0
    4.1582    3.1792    2.3330 O   0  0  0  0  0  0  0  0  0  0  0  0
    3.2153    3.4365    1.2920 C   0  0  2  0  0  0  0  0  0  0  0  0
    1.9329    3.8034    1.8305 O   0  0  0  0  0  0  0  0  0  0  0  0
    1.8424    5.0060    2.5261 C   0  0  0  0  0  0  0  0  0  0  0  0
    0.6804    5.6954    2.5849 C   0  0  0  0  0  0  0  0  0  0  0  0
    0.5291    6.8885    3.2934 O   0  0  0  0  0  0  0  0  0  0  0  0
    1.6225    7.4260    3.9608 C   0  0  0  0  0  0  0  0  0  0  0  0
    2.8131    6.8113    3.9565 C   0  0  0  0  0  0  0  0  0  0  0  0
    3.0497    5.5103    3.2777 C   0  0  0  0  0  0  0  0  0  0  0  0
    3.9634    7.4925    4.6159 C   0  0  0  0  0  0  0  0  0  0  0  0
    5.1331    6.9459    4.5976 N   0  0  0  0  0  0  0  0  0  0  0  0
    6.1853    7.5963    5.1851 C   0  0  0  0  0  0  0  0  0  0  0  0
    7.2840    7.0443    5.1425 O   0  0  0  0  0  0  0  0  0  0  0  0
    6.0747    8.8390    5.8021 N   0  0  0  0  0  0  0  0  0  0  0  0
    4.9173    9.3930    5.8308 C   0  0  0  0  0  0  0  0  0  0  0  0
    3.7151    8.8004    5.2584 C   0  0  0  0  0  0  0  0  0  0  0  0
    2.4635    9.3195    5.2512 C   0  0  0  0  0  0  0  0  0  0  0  0
    1.4435    8.6218    4.6100 N   0  0  0  0  0  0  0  0  0  0  0  0
    2.0567   10.6052    5.8701 C   0  0  0  0  0  0  0  0  0  0  0  0
    1.5337   10.6399    7.2108 O   0  0  0  0  0  0  0  0  0  0  0  0
    2.7870   11.2751    6.9099 O   0  0  0  0  0  0  0  0  0  0  0  0
   -0.5221    5.2768    1.8374 C   0  0  0  0  0  0  0  0  0  0  0  0
   -0.5504    5.8289    0.6018 N   0  0  0  0  0  0  0  0  0  0  0  0
   -1.5077    5.3863   -0.2059 C   0  0  0  0  0  0  0  0  0  0  0  0
   -2.4102    4.4580    0.1028 N   0  0  0  0  0  0  0  0  0  0  0  0
   -2.3716    3.9109    1.3314 C   0  0  0  0  0  0  0  0  0  0  0  0
   -1.4532    4.3089    2.3084 C   0  0  0  0  0  0  0  0  0  0  0  0
   -1.5561    3.7149    3.6252 C   0  0  0  0  0  0  0  0  0  0  0  0
   -0.9469    4.4495    4.8003 C   0  0  0  0  0  0  0  0  0  0  0  0
   -2.3590    2.5427    3.8598 C   0  0  0  0  0  0  0  0  0  0  0  0
   -2.3222    1.6572    4.9899 C   0  0  0  0  0  0  0  0  0  0  0  0
   -1.2170    1.6991    6.0152 C   0  0  0  0  0  0  0  0  0  0  0  0
   -3.3121    0.6743    5.1125 C   0  0  0  0  0  0  0  0  0  0  0  0
   -3.3832   -0.2802    6.2666 C   0  0  0  0  0  0  0  0  0  0  0  0
   -4.2356    0.4893    4.1535 N   0  0  0  0  0  0  0  0  0  0  0  0
   -4.1953    1.2398    3.0216 N   0  0  0  0  0  0  0  0  0  0  0  0
   -3.2873    2.2160    2.8638 C   0  0  0  0  0  0  0  0  0  0  0  0
   -3.2894    2.9118    1.6582 C   0  0  0  0  0  0  0  0  0  0  0  0
   -4.2453    2.5574    0.7120 O   0  0  0  0  0  0  0  0  0  0  0  0
    3.0658    2.1708    0.4610 C   0  0  0  0  0  0  0  0  0  0  0  0
    2.0167    1.6403    0.1261 O   0  0  0  0  0  0  0  0  0  0  0  0
    4.3939    1.5893    0.0335 C   0  0  0  0  0  0  0  0  0  0  0  0
    4.4562    0.8710   -0.9532 O   0  0  0  0  0  0  0  0  0  0  0  0
    5.6566    1.9413    0.7938 C   0  0  0  0  0  0  0  0  0  0  0  0
    6.7457    1.4835    0.4892 O   0  0  0  0  0  0  0  0  0  0  0  0
  1  2  1  0  0  0  0
  2  3  2  0  0  0  0
  3  4  1  0  0  0  0
  3 47  1  0  0  0  0
  4  5  1  0  0  0  0
  5  6  1  1  0  0  0
  5 43  1  0  0  0  0
  6  7  1  0  0  0  0
  7  8  2  0  0  0  0
  7 12  1  0  0  0  0
  8  9  1  0  0  0  0
  8 25  1  0  0  0  0
  9 10  1  0  0  0  0
 10 11  2  0  0  0  0
 10 21  1  0  0  0  0
 11 12  1  0  0  0  0
 11 13  1  0  0  0  0
 13 14  2  0  0  0  0
 13 19  1  0  0  0  0
 14 15  1  0  0  0  0
 15 16  2  0  0  0  0
 15 17  1  0  0  0  0
 17 18  2  0  0  0  0
 18 19  1  0  0  0  0
 19 20  2  0  0  0  0
 20 21  1  0  0  0  0
 20 22  1  0  0  0  0
 22 23  1  0  0  0  0
 22 24  1  0  0  0  0
 23 24  1  0  0  0  0
 25 26  2  0  0  0  0
 25 30  1  0  0  0  0
 26 27  1  0  0  0  0
 27 28  2  0  0  0  0
 28 29  1  0  0  0  0
 29 30  2  0  0  0  0
 29 41  1  0  0  0  0
 30 31  1  0  0  0  0
 31 32  1  0  0  0  0
 31 33  2  0  0  0  0
 33 34  1  0  0  0  0
 33 40  1  0  0  0  0
 34 35  1  0  0  0  0
 34 36  2  0  0  0  0
 36 37  1  0  0  0  0
 36 38  1  0  0  0  0
 38 39  2  0  0  0  0
 39 40  1  0  0  0  0
 40 41  2  0  0  0  0
 41 42  1  0  0  0  0
 43 44  2  0  0  0  0
 43 45  1  0  0  0  0
 45 46  2  0  0  0  0
 45 47  1  0  0  0  0
 47 48  2  0  0  0  0
M  END
$$$$