
 OpenBabel11012010133D

 46 53  0  0  1  0  0  0  0  0999 V2000
    7.6348   -0.4771    5.8002 O   0  0  0  0  0  0  0  0  0  0  0  0
    7.3070    0.8011    5.4310 C   0  0  0  0  0  0  0  0  0  0  0  0
    6.0943    1.1341    4.9730 C   0  0  0  0  0  0  0  0  0  0  0  0
    5.1050    0.1807    4.8148 O   0  0  0  0  0  0  0  0  0  0  0  0
    3.7889    0.6658    5.0759 C   0  0  2  0  0  0  0  0  0  0  0  0
    2.8121   -0.3760    5.0171 O   0  0  0  0  0  0  0  0  0  0  0  0
    2.9612   -1.4297    5.9103 C   0  0  0  0  0  0  0  0  0  0  0  0
    2.5373   -2.6681    5.5851 C   0  0  0  0  0  0  0  0  0  0  0  0
    2.5936   -3.7496    6.4528 O   0  0  0  0  0  0  0  0  0  0  0  0
    3.0638   -3.5576    7.7395 C   0  0  0  0  0  0  0  0  0  0  0  0
    3.5059   -2.3640    8.1753 C   0  0  0  0  0  0  0  0  0  0  0  0
    3.5246   -1.1605    7.2858 C   0  0  0  0  0  0  0  0  0  0  0  0
    4.0120   -2.2005    9.5895 C   0  0  0  0  0  0  0  0  0  0  0  0
    3.9654   -3.4733   10.3984 C   0  0  0  0  0  0  0  0  0  0  0  0
    3.5096   -4.6312    9.8782 C   0  0  0  0  0  0  0  0  0  0  0  0
    3.0558   -4.6462    8.5729 N   0  0  0  0  0  0  0  0  0  0  0  0
    3.4543   -5.9007   10.6330 C   0  0  0  0  0  0  0  0  0  0  0  0
    3.5978   -7.1803    9.9919 O   0  0  0  0  0  0  0  0  0  0  0  0
    4.6282   -6.6935   10.8736 O   0  0  0  0  0  0  0  0  0  0  0  0
    1.9546   -2.9940    4.2741 C   0  0  0  0  0  0  0  0  0  0  0  0
    2.8545   -3.3893    3.3472 N   0  0  0  0  0  0  0  0  0  0  0  0
    2.3581   -3.6926    2.1469 C   0  0  0  0  0  0  0  0  0  0  0  0
    1.0682   -3.6406    1.7896 N   0  0  0  0  0  0  0  0  0  0  0  0
    0.1936   -3.2513    2.7217 C   0  0  0  0  0  0  0  0  0  0  0  0
    0.5742   -2.9080    4.0259 C   0  0  0  0  0  0  0  0  0  0  0  0
   -0.4183   -2.5152    4.9610 C   0  0  0  0  0  0  0  0  0  0  0  0
   -1.7644   -2.4685    4.5866 C   0  0  0  0  0  0  0  0  0  0  0  0
   -2.1372   -2.8125    3.2961 C   0  0  0  0  0  0  0  0  0  0  0  0
   -1.1527   -3.1892    2.3791 C   0  0  0  0  0  0  0  0  0  0  0  0
   -3.4171   -2.7933    2.8205 O   0  0  0  0  0  0  0  0  0  0  0  0
   -4.4641   -2.7908    3.7922 C   0  0  2  0  0  0  0  0  0  0  0  0
   -4.2119   -1.9932    5.0507 C   0  0  0  0  0  0  0  0  0  0  0  0
   -5.0801   -1.3916    5.6687 O   0  0  0  0  0  0  0  0  0  0  0  0
   -2.7847   -2.0277    5.5446 C   0  0  0  0  0  0  0  0  0  0  0  0
   -2.4993   -1.6820    6.6804 O   0  0  0  0  0  0  0  0  0  0  0  0
   -4.8568   -4.1951    4.1193 C   0  0  1  0  0  0  0  0  0  0  0  0
   -3.8786   -4.9919    4.8304 O   0  0  0  0  0  0  0  0  0  0  0  0
   -6.2160   -4.3640    4.5235 O   0  0  0  0  0  0  0  0  0  0  0  0
   -5.8567   -4.9479    3.3634 C   0  0  0  0  0  0  0  0  0  0  0  0
   -5.8794   -6.1152    3.0449 O   0  0  0  0  0  0  0  0  0  0  0  0
    3.4390    1.7344    4.0532 C   0  0  0  0  0  0  0  0  0  0  0  0
    2.4175    1.8048    3.3863 O   0  0  0  0  0  0  0  0  0  0  0  0
    4.4974    2.8072    3.9728 C   0  0  0  0  0  0  0  0  0  0  0  0
    4.2555    3.8776    3.4373 O   0  0  0  0  0  0  0  0  0  0  0  0
    5.8498    2.5575    4.6094 C   0  0  0  0  0  0  0  0  0  0  0  0
    6.6324    3.4656    4.8359 O   0  0  0  0  0  0  0  0  0  0  0  0
  1  2  1  0  0  0  0
  2  3  2  0  0  0  0
  3  4  1  0  0  0  0
  3 45  1  0  0  0  0
  4  5  1  0  0  0  0
  5  6  1  6  0  0  0
  5 41  1  0  0  0  0
  6  7  1  0  0  0  0
  7  8  2  0  0  0  0
  7 12  1  0  0  0  0
  8  9  1  0  0  0  0
  8 20  1  0  0  0  0
  9 10  1  0  0  0  0
 10 11  2  0  0  0  0
 10 16  1  0  0  0  0
 11 12  1  0  0  0  0
 11 13  1  0  0  0  0
 13 14  1  0  0  0  0
 14 15  2  0  0  0  0
 15 16  1  0  0  0  0
 15 17  1  0  0  0  0
 17 18  1  0  0  0  0
 17 19  1  0  0  0  0
 18 19  1  0  0  0  0
 20 21  2  0  0  0  0
 20 25  1  0  0  0  0
 21 22  1  0  0  0  0
 22 23  2  0  0  0  0
 23 24  1  0  0  0  0
 24 25  2  0  0  0  0
 24 29  1  0  0  0  0
 25 26  1  0  0  0  0
 26 27  2  0  0  0  0
 27 28  1  0  0  0  0
 27 34  1  0  0  0  0
 28 29  2  0  0  0  0
 28 30  1  0  0  0  0
 31 30  1  6  0  0  0
 31 32  1  0  0  0  0
 31 36  1  0  0  0  0
 32 33  2  0  0  0  0
 32 34  1  0  0  0  0
 34 35  2  0  0  0  0
 36 37  1  1  0  0  0
 36 38  1  0  0  0  0
 36 39  1  0  0  0  0
 38 39  1  0  0  0  0
 39 40  2  0  0  0  0
 41 42  2  0  0  0  0
 41 43  1  0  0  0  0
 43 44  2  0  0  0  0
 43 45  1  0  0  0  0
 45 46  2  0  0  0  0
M  END
$$$$