
 OpenBabel11172022253D

 52 60  0  0  1  0  0  0  0  0999 V2000
    2.8537   -5.8879   -3.7575 O   0  0  0  0  0  0  0  0  0  0  0  0
    3.1061   -4.5487   -3.6123 C   0  0  0  0  0  0  0  0  0  0  0  0
    2.6582   -3.8401   -2.5698 C   0  0  0  0  0  0  0  0  0  0  0  0
    1.8731   -4.4204   -1.5903 O   0  0  0  0  0  0  0  0  0  0  0  0
    2.1290   -3.9038   -0.2812 C   0  0  2  0  0  0  0  0  0  0  0  0
    1.4249   -4.6618    0.7090 O   0  0  0  0  0  0  0  0  0  0  0  0
    1.7448   -6.0144    0.7927 C   0  0  0  0  0  0  0  0  0  0  0  0
    0.8279   -6.9221    1.1928 C   0  0  0  0  0  0  0  0  0  0  0  0
    1.1048   -8.2780    1.3329 O   0  0  0  0  0  0  0  0  0  0  0  0
    2.3436   -8.7548    0.9265 C   0  0  0  0  0  0  0  0  0  0  0  0
    3.3194   -7.9376    0.4971 C   0  0  0  0  0  0  0  0  0  0  0  0
    3.1534   -6.4556    0.4751 C   0  0  0  0  0  0  0  0  0  0  0  0
    4.6041   -8.4973   -0.0593 C   0  0  3  0  0  0  0  0  0  0  0  0
    5.6823   -7.9523    0.6933 O   0  0  0  0  0  0  0  0  0  0  0  0
    6.9417   -8.4113    0.4898 C   0  0  0  0  0  0  0  0  0  0  0  0
    7.9158   -7.7867    0.8881 O   0  0  0  0  0  0  0  0  0  0  0  0
    7.0782   -9.6055   -0.1353 O   0  0  0  0  0  0  0  0  0  0  0  0
    5.9915  -10.4185   -0.5632 C   0  0  3  0  0  0  0  0  0  0  0  0
    4.6982   -9.9799   -0.0016 C   0  0  0  0  0  0  0  0  0  0  0  0
    3.6983  -10.7426    0.4976 C   0  0  0  0  0  0  0  0  0  0  0  0
    2.5476  -10.1108    0.9526 N   0  0  0  0  0  0  0  0  0  0  0  0
    3.7099  -12.2238    0.5755 C   0  0  0  0  0  0  0  0  0  0  0  0
    2.5713  -12.9720    1.0411 O   0  0  0  0  0  0  0  0  0  0  0  0
    2.9597  -13.0308   -0.3451 O   0  0  0  0  0  0  0  0  0  0  0  0
    5.9013  -10.3389   -1.9755 O   0  0  0  0  0  0  0  0  0  0  0  0
   -0.5603   -6.5486    1.5117 C   0  0  0  0  0  0  0  0  0  0  0  0
   -0.8673   -6.1850    2.8100 C   0  0  0  0  0  0  0  0  0  0  0  0
   -2.0874   -5.7501    3.1535 N   0  0  0  0  0  0  0  0  0  0  0  0
   -3.0583   -5.6257    2.1821 N   0  0  0  0  0  0  0  0  0  0  0  0
   -2.8424   -5.9588    0.9101 C   0  0  0  0  0  0  0  0  0  0  0  0
   -1.5863   -6.4726    0.5360 C   0  0  0  0  0  0  0  0  0  0  0  0
   -1.4272   -6.8862   -0.8046 C   0  0  0  0  0  0  0  0  0  0  0  0
   -2.4727   -6.7225   -1.7070 C   0  0  0  0  0  0  0  0  0  0  0  0
   -3.6345   -6.1318   -1.2671 C   0  0  0  0  0  0  0  0  0  0  0  0
   -3.8312   -5.7874    0.0173 N   0  0  0  0  0  0  0  0  0  0  0  0
   -4.6990   -5.8561   -2.0800 O   0  0  0  0  0  0  0  0  0  0  0  0
   -4.3886   -5.6632   -3.4613 C   0  0  2  0  0  0  0  0  0  0  0  0
   -3.4446   -6.6883   -4.0460 C   0  0  0  0  0  0  0  0  0  0  0  0
   -3.4717   -7.0663   -5.2087 O   0  0  0  0  0  0  0  0  0  0  0  0
   -2.3717   -7.1674   -3.0944 C   0  0  0  0  0  0  0  0  0  0  0  0
   -1.4707   -7.9014   -3.4672 O   0  0  0  0  0  0  0  0  0  0  0  0
   -3.8939   -4.2729   -3.7194 C   0  0  1  0  0  0  0  0  0  0  0  0
   -2.6773   -3.8763   -3.0375 O   0  0  0  0  0  0  0  0  0  0  0  0
   -3.9838   -3.8667   -5.0864 O   0  0  0  0  0  0  0  0  0  0  0  0
   -4.7356   -3.1776   -4.2055 C   0  0  0  0  0  0  0  0  0  0  0  0
   -4.7120   -1.9985   -3.9373 O   0  0  0  0  0  0  0  0  0  0  0  0
    1.7272   -2.4355   -0.2192 C   0  0  0  0  0  0  0  0  0  0  0  0
    1.1750   -1.8749    0.7149 O   0  0  0  0  0  0  0  0  0  0  0  0
    2.1764   -1.6649   -1.4419 C   0  0  0  0  0  0  0  0  0  0  0  0
    1.8788   -0.4919   -1.5955 O   0  0  0  0  0  0  0  0  0  0  0  0
    2.9838   -2.3920   -2.4971 C   0  0  0  0  0  0  0  0  0  0  0  0
    3.8391   -1.8378   -3.1639 O   0  0  0  0  0  0  0  0  0  0  0  0
  1  2  1  0  0  0  0
  2  3  2  0  0  0  0
  3  4  1  0  0  0  0
  3 51  1  0  0  0  0
  4  5  1  0  0  0  0
  5  6  1  1  0  0  0
  5 47  1  0  0  0  0
  6  7  1  0  0  0  0
  7  8  2  0  0  0  0
  7 12  1  0  0  0  0
  8  9  1  0  0  0  0
  8 26  1  0  0  0  0
  9 10  1  0  0  0  0
 10 11  2  0  0  0  0
 10 21  1  0  0  0  0
 11 12  1  0  0  0  0
 11 13  1  0  0  0  0
 13 14  1  0  0  0  0
 13 19  1  0  0  0  0
 14 15  1  0  0  0  0
 15 16  2  0  0  0  0
 15 17  1  0  0  0  0
 17 18  1  0  0  0  0
 18 19  1  0  0  0  0
 18 25  1  0  0  0  0
 19 20  2  0  0  0  0
 20 21  1  0  0  0  0
 20 22  1  0  0  0  0
 22 23  1  0  0  0  0
 22 24  1  0  0  0  0
 23 24  1  0  0  0  0
 26 27  2  0  0  0  0
 26 31  1  0  0  0  0
 27 28  1  0  0  0  0
 28 29  2  0  0  0  0
 29 30  1  0  0  0  0
 30 31  2  0  0  0  0
 30 35  1  0  0  0  0
 31 32  1  0  0  0  0
 32 33  2  0  0  0  0
 33 34  1  0  0  0  0
 33 40  1  0  0  0  0
 34 35  2  0  0  0  0
 34 36  1  0  0  0  0
 37 36  1  1  0  0  0
 37 38  1  0  0  0  0
 37 42  1  0  0  0  0
 38 39  2  0  0  0  0
 38 40  1  0  0  0  0
 40 41  2  0  0  0  0
 42 43  1  1  0  0  0
 42 44  1  0  0  0  0
 42 45  1  0  0  0  0
 44 45  1  0  0  0  0
 45 46  2  0  0  0  0
 47 48  2  0  0  0  0
 47 49  1  0  0  0  0
 49 50  2  0  0  0  0
 49 51  1  0  0  0  0
 51 52  2  0  0  0  0
M  END
$$$$