
 OpenBabel10202002333D

 51 59  0  0  1  0  0  0  0  0999 V2000
    5.5481    3.8074    5.0999 O   0  0  0  0  0  0  0  0  0  0  0  0
    5.6826    2.6669    4.3441 C   0  0  0  0  0  0  0  0  0  0  0  0
    4.6990    2.1785    3.5767 C   0  0  0  0  0  0  0  0  0  0  0  0
    3.4482    2.7564    3.5649 O   0  0  0  0  0  0  0  0  0  0  0  0
    2.9160    2.9491    2.2530 C   0  0  2  0  0  0  0  0  0  0  0  0
    1.7418    3.7768    2.2357 O   0  0  0  0  0  0  0  0  0  0  0  0
    1.7096    4.9730    2.9471 C   0  0  0  0  0  0  0  0  0  0  0  0
    0.6127    5.7600    2.9326 C   0  0  0  0  0  0  0  0  0  0  0  0
    0.4786    6.9270    3.6797 O   0  0  0  0  0  0  0  0  0  0  0  0
    1.5435    7.3729    4.4339 C   0  0  0  0  0  0  0  0  0  0  0  0
    2.7483    6.7019    4.4589 C   0  0  0  0  0  0  0  0  0  0  0  0
    2.8870    5.3818    3.7819 C   0  0  0  0  0  0  0  0  0  0  0  0
    3.7899    7.2801    5.1807 C   0  0  0  0  0  0  0  0  0  0  0  0
    5.0485    6.6803    5.2436 N   0  0  0  0  0  0  0  0  0  0  0  0
    6.1117    7.2197    5.9174 C   0  0  0  0  0  0  0  0  0  0  0  0
    7.1647    6.5869    5.9354 O   0  0  0  0  0  0  0  0  0  0  0  0
    5.9451    8.4303    6.5384 N   0  0  0  0  0  0  0  0  0  0  0  0
    4.7856    9.0136    6.5262 C   0  0  0  0  0  0  0  0  0  0  0  0
    3.5965    8.4749    5.8586 C   0  0  0  0  0  0  0  0  0  0  0  0
    2.3402    9.0787    5.8483 C   0  0  0  0  0  0  0  0  0  0  0  0
    1.3303    8.5271    5.1080 N   0  0  0  0  0  0  0  0  0  0  0  0
    2.0209   10.3494    6.5942 C   0  0  0  0  0  0  0  0  0  0  0  0
    0.9972   10.2760    7.6022 O   0  0  0  0  0  0  0  0  0  0  0  0
    2.3742   10.4463    7.9826 O   0  0  0  0  0  0  0  0  0  0  0  0
   -0.5899    5.4383    2.1379 C   0  0  0  0  0  0  0  0  0  0  0  0
   -1.5072    4.6991    2.7965 N   0  0  0  0  0  0  0  0  0  0  0  0
   -2.6184    4.4062    2.1161 C   0  0  0  0  0  0  0  0  0  0  0  0
   -2.9029    4.7873    0.8633 N   0  0  0  0  0  0  0  0  0  0  0  0
   -1.9893    5.5244    0.2285 C   0  0  0  0  0  0  0  0  0  0  0  0
   -0.7712    5.8963    0.8187 C   0  0  0  0  0  0  0  0  0  0  0  0
    0.1449    6.6819    0.0734 C   0  0  0  0  0  0  0  0  0  0  0  0
   -0.1690    7.0934   -1.2258 C   0  0  0  0  0  0  0  0  0  0  0  0
   -1.3890    6.7514   -1.7908 C   0  0  0  0  0  0  0  0  0  0  0  0
   -2.2728    5.9505   -1.0662 C   0  0  0  0  0  0  0  0  0  0  0  0
   -1.8052    7.1527   -3.0308 O   0  0  0  0  0  0  0  0  0  0  0  0
   -1.1835    8.3386   -3.5441 C   0  0  2  0  0  0  0  0  0  0  0  0
    0.3130    8.4012   -3.3461 C   0  0  0  0  0  0  0  0  0  0  0  0
    1.0976    8.8730   -4.1572 O   0  0  0  0  0  0  0  0  0  0  0  0
    0.7868    7.8904   -2.0036 C   0  0  0  0  0  0  0  0  0  0  0  0
    1.9146    8.1195   -1.5959 O   0  0  0  0  0  0  0  0  0  0  0  0
   -1.8443    9.5659   -2.9968 C   0  0  1  0  0  0  0  0  0  0  0  0
   -1.8133    9.7342   -1.5579 O   0  0  0  0  0  0  0  0  0  0  0  0
   -1.6094   10.7523   -3.7588 O   0  0  0  0  0  0  0  0  0  0  0  0
   -2.8832   10.3194   -3.6980 C   0  0  0  0  0  0  0  0  0  0  0  0
   -3.8677   10.8735   -3.2643 O   0  0  0  0  0  0  0  0  0  0  0  0
    2.5943    1.5587    1.7228 C   0  0  0  0  0  0  0  0  0  0  0  0
    1.5432    1.2051    1.2092 O   0  0  0  0  0  0  0  0  0  0  0  0
    3.7532    0.5910    1.8734 C   0  0  0  0  0  0  0  0  0  0  0  0
    3.7501   -0.4709    1.2701 O   0  0  0  0  0  0  0  0  0  0  0  0
    4.9380    0.9659    2.7507 C   0  0  0  0  0  0  0  0  0  0  0  0
    5.9885    0.3486    2.7319 O   0  0  0  0  0  0  0  0  0  0  0  0
  1  2  1  0  0  0  0
  2  3  2  0  0  0  0
  3  4  1  0  0  0  0
  3 50  1  0  0  0  0
  4  5  1  0  0  0  0
  5  6  1  1  0  0  0
  5 46  1  0  0  0  0
  6  7  1  0  0  0  0
  7  8  2  0  0  0  0
  7 12  1  0  0  0  0
  8  9  1  0  0  0  0
  8 25  1  0  0  0  0
  9 10  1  0  0  0  0
 10 11  2  0  0  0  0
 10 21  1  0  0  0  0
 11 12  1  0  0  0  0
 11 13  1  0  0  0  0
 13 14  1  0  0  0  0
 13 19  2  0  0  0  0
 14 15  1  0  0  0  0
 15 16  2  0  0  0  0
 15 17  1  0  0  0  0
 17 18  2  0  0  0  0
 18 19  1  0  0  0  0
 19 20  1  0  0  0  0
 20 21  2  0  0  0  0
 20 22  1  0  0  0  0
 22 23  1  0  0  0  0
 22 24  1  0  0  0  0
 23 24  1  0  0  0  0
 25 26  2  0  0  0  0
 25 30  1  0  0  0  0
 26 27  1  0  0  0  0
 27 28  2  0  0  0  0
 28 29  1  0  0  0  0
 29 30  2  0  0  0  0
 29 34  1  0  0  0  0
 30 31  1  0  0  0  0
 31 32  2  0  0  0  0
 32 33  1  0  0  0  0
 32 39  1  0  0  0  0
 33 34  2  0  0  0  0
 33 35  1  0  0  0  0
 36 35  1  1  0  0  0
 36 37  1  0  0  0  0
 36 41  1  0  0  0  0
 37 38  2  0  0  0  0
 37 39  1  0  0  0  0
 39 40  2  0  0  0  0
 41 42  1  1  0  0  0
 41 43  1  0  0  0  0
 41 44  1  0  0  0  0
 43 44  1  0  0  0  0
 44 45  2  0  0  0  0
 46 47  2  0  0  0  0
 46 48  1  0  0  0  0
 48 49  2  0  0  0  0
 48 50  1  0  0  0  0
 50 51  2  0  0  0  0
M  END
$$$$