
 OpenBabel11222003193D

 54 62  0  0  1  0  0  0  0  0999 V2000
    2.4446    1.4638   -5.5068 O   0  0  0  0  0  0  0  0  0  0  0  0
    2.1222    1.3469   -4.1743 C   0  0  0  0  0  0  0  0  0  0  0  0
    1.7804    0.1895   -3.5953 C   0  0  0  0  0  0  0  0  0  0  0  0
    1.6787   -0.9642   -4.3238 O   0  0  0  0  0  0  0  0  0  0  0  0
    2.0244   -2.1628   -3.6535 C   0  0  2  0  0  0  0  0  0  0  0  0
    2.0241   -3.3076   -4.5359 O   0  0  0  0  0  0  0  0  0  0  0  0
    2.3572   -3.2210   -5.8822 C   0  0  0  0  0  0  0  0  0  0  0  0
    2.3035   -4.3157   -6.6766 C   0  0  0  0  0  0  0  0  0  0  0  0
    2.5918   -4.2527   -8.0452 O   0  0  0  0  0  0  0  0  0  0  0  0
    2.9132   -3.0417   -8.6499 C   0  0  0  0  0  0  0  0  0  0  0  0
    2.9894   -1.9123   -7.9331 C   0  0  0  0  0  0  0  0  0  0  0  0
    2.7534   -1.8925   -6.4666 C   0  0  0  0  0  0  0  0  0  0  0  0
    3.2126   -0.5678   -8.5578 C   0  0  3  0  0  0  0  0  0  0  0  0
    4.4112   -0.0315   -8.0367 O   0  0  0  0  0  0  0  0  0  0  0  0
    4.7383    1.2121   -8.4821 C   0  0  0  0  0  0  0  0  0  0  0  0
    5.5471    1.9123   -7.8967 O   0  0  0  0  0  0  0  0  0  0  0  0
    4.0778    1.6195   -9.5948 O   0  0  0  0  0  0  0  0  0  0  0  0
    3.6635    0.6784  -10.5812 C   0  0  3  0  0  0  0  0  0  0  0  0
    3.4173   -0.6743  -10.0159 C   0  0  0  0  0  0  0  0  0  0  0  0
    3.3718   -1.8489  -10.6839 C   0  0  0  0  0  0  0  0  0  0  0  0
    3.1253   -3.0348  -10.0074 O   0  3  0  0  0  0  0  0  0  0  0  0
    3.5097   -1.9657  -12.1509 C   0  0  0  0  0  0  0  0  0  0  0  0
    2.9541   -3.1011  -12.8379 O   0  0  0  0  0  0  0  0  0  0  0  0
    2.3795   -1.7920  -13.0133 O   0  0  0  0  0  0  0  0  0  0  0  0
    2.4131    1.0871  -11.0958 O   0  0  0  0  0  0  0  0  0  0  0  0
    1.8912   -5.6668   -6.1829 C   0  0  0  0  0  0  0  0  0  0  0  0
    0.9112   -5.7406   -5.1895 C   0  0  0  0  0  0  0  0  0  0  0  0
    0.4891   -6.9069   -4.7053 N   0  3  0  0  0  0  0  0  0  0  0  0
   -0.4608   -6.9068   -3.7506 F   0  0  0  0  0  0  0  0  0  0  0  0
    0.9446   -8.0578   -5.1473 N   0  0  0  0  0  0  0  0  0  0  0  0
    1.8457   -8.0765   -6.1325 C   0  0  0  0  0  0  0  0  0  0  0  0
    2.3727   -6.8977   -6.6988 C   0  0  0  0  0  0  0  0  0  0  0  0
    3.3130   -7.0406   -7.7526 C   0  0  0  0  0  0  0  0  0  0  0  0
    3.6194   -8.2944   -8.2982 C   0  0  0  0  0  0  0  0  0  0  0  0
    4.4101   -8.3758   -9.5398 C   0  0  0  0  0  0  0  0  0  0  0  0
    4.8221   -7.3489  -10.0657 O   0  0  0  0  0  0  0  0  0  0  0  0
    4.5758   -9.7401  -10.1896 C   0  0  0  0  0  0  0  0  0  0  0  0
    5.4676   -9.9256  -11.0041 O   0  0  0  0  0  0  0  0  0  0  0  0
    3.5218  -10.7596   -9.7936 C   0  0  1  0  0  0  0  0  0  0  0  0
    3.3183  -10.7086   -8.3257 N   0  0  0  0  0  0  0  0  0  0  0  0
    3.0735   -9.4520   -7.7639 C   0  0  0  0  0  0  0  0  0  0  0  0
    2.2421   -9.3116   -6.6445 C   0  0  0  0  0  0  0  0  0  0  0  0
    1.7096  -10.4252   -6.1130 F   0  0  0  0  0  0  0  0  0  0  0  0
    2.2588  -10.5974  -10.6234 C   0  0  1  0  0  0  0  0  0  0  0  0
    2.4314  -10.6689  -12.0519 O   0  0  0  0  0  0  0  0  0  0  0  0
    1.0959  -11.2805  -10.1122 O   0  0  0  0  0  0  0  0  0  0  0  0
    1.0377   -9.9562  -10.1953 C   0  0  0  0  0  0  0  0  0  0  0  0
    0.7767   -9.0711   -9.3868 O   0  0  0  0  0  0  0  0  0  0  0  0
    0.9724   -2.3877   -2.5786 C   0  0  0  0  0  0  0  0  0  0  0  0
    0.3956   -3.4516   -2.3855 O   0  0  0  0  0  0  0  0  0  0  0  0
    0.6779   -1.1244   -1.7828 C   0  0  0  0  0  0  0  0  0  0  0  0
   -0.1574   -1.1355   -0.8964 O   0  0  0  0  0  0  0  0  0  0  0  0
    1.3966    0.1630   -2.1646 C   0  0  0  0  0  0  0  0  0  0  0  0
    1.6625    1.0399   -1.3675 O   0  0  0  0  0  0  0  0  0  0  0  0
  1  2  1  0  0  0  0
  2  3  2  0  0  0  0
  3  4  1  0  0  0  0
  3 53  1  0  0  0  0
  4  5  1  0  0  0  0
  5  6  1  6  0  0  0
  5 49  1  0  0  0  0
  6  7  1  0  0  0  0
  7  8  2  0  0  0  0
  7 12  1  0  0  0  0
  8  9  1  0  0  0  0
  8 26  1  0  0  0  0
  9 10  1  0  0  0  0
 10 11  2  0  0  0  0
 10 21  1  0  0  0  0
 11 12  1  0  0  0  0
 11 13  1  0  0  0  0
 13 14  1  0  0  0  0
 13 19  1  0  0  0  0
 14 15  1  0  0  0  0
 15 16  2  0  0  0  0
 15 17  1  0  0  0  0
 17 18  1  0  0  0  0
 18 19  1  0  0  0  0
 18 25  1  0  0  0  0
 19 20  2  0  0  0  0
 20 21  1  0  0  0  0
 20 22  1  0  0  0  0
 22 23  1  0  0  0  0
 22 24  1  0  0  0  0
 23 24  1  0  0  0  0
 26 27  2  0  0  0  0
 26 32  1  0  0  0  0
 27 28  1  0  0  0  0
 28 29  1  0  0  0  0
 28 30  2  0  0  0  0
 30 31  1  0  0  0  0
 31 32  2  0  0  0  0
 31 42  1  0  0  0  0
 32 33  1  0  0  0  0
 33 34  2  0  0  0  0
 34 35  1  0  0  0  0
 34 41  1  0  0  0  0
 35 36  2  0  0  0  0
 35 37  1  0  0  0  0
 37 38  2  0  0  0  0
 39 37  1  6  0  0  0
 39 40  1  0  0  0  0
 39 44  1  0  0  0  0
 40 41  1  0  0  0  0
 41 42  2  0  0  0  0
 42 43  1  0  0  0  0
 44 45  1  6  0  0  0
 44 46  1  0  0  0  0
 44 47  1  0  0  0  0
 46 47  1  0  0  0  0
 47 48  2  0  0  0  0
 49 50  2  0  0  0  0
 49 51  1  0  0  0  0
 51 52  2  0  0  0  0
 51 53  1  0  0  0  0
 53 54  2  0  0  0  0
M  CHG  2  21   1  28   1
M  END
$$$$