
 OpenBabel11262000023D

 54 62  0  0  1  0  0  0  0  0999 V2000
   -1.5469    2.4423    4.3817 O   0  0  0  0  0  0  0  0  0  0  0  0
   -0.9396    1.4118    3.7122 C   0  0  0  0  0  0  0  0  0  0  0  0
   -0.2953    1.5727    2.5498 C   0  0  0  0  0  0  0  0  0  0  0  0
   -0.2298    2.7980    1.9117 O   0  0  0  0  0  0  0  0  0  0  0  0
    0.9840    3.0200    1.1801 C   0  0  2  0  0  0  0  0  0  0  0  0
    1.0576    4.3699    0.6788 O   0  0  0  0  0  0  0  0  0  0  0  0
    1.1397    5.4208    1.5933 C   0  0  0  0  0  0  0  0  0  0  0  0
    1.3670    6.6927    1.1914 C   0  0  0  0  0  0  0  0  0  0  0  0
    1.4369    7.7817    2.0563 O   0  0  0  0  0  0  0  0  0  0  0  0
    1.2336    7.5939    3.4008 C   0  0  0  0  0  0  0  0  0  0  0  0
    0.9872    6.3532    3.9296 C   0  0  0  0  0  0  0  0  0  0  0  0
    0.9417    5.1411    3.0628 C   0  0  0  0  0  0  0  0  0  0  0  0
    0.7537    6.2920    5.2980 C   0  0  0  0  0  0  0  0  0  0  0  0
    0.5284    5.0311    5.8589 O   0  0  0  0  0  0  0  0  0  0  0  0
    0.1540    4.8350    7.1836 C   0  0  0  0  0  0  0  0  0  0  0  0
   -0.0908    3.7124    7.6074 O   0  0  0  0  0  0  0  0  0  0  0  0
    0.0277    5.9432    7.9477 O   0  0  0  0  0  0  0  0  0  0  0  0
    0.4755    7.2401    7.5500 C   0  0  3  0  0  0  0  0  0  0  0  0
    0.7605    7.4138    6.0997 C   0  0  0  0  0  0  0  0  0  0  0  0
    1.0829    8.6394    5.5017 C   0  0  0  0  0  0  0  0  0  0  0  0
    1.2834    8.7131    4.1528 N   0  0  0  0  0  0  0  0  0  0  0  0
    1.2488    9.9141    6.3062 C   0  0  0  0  0  0  0  0  0  0  0  0
    2.5668   10.2023    6.7989 O   0  0  0  0  0  0  0  0  0  0  0  0
    2.0095   10.9856    5.7245 O   0  0  0  0  0  0  0  0  0  0  0  0
   -0.5224    8.1683    7.9607 O   0  0  0  0  0  0  0  0  0  0  0  0
    1.6112    7.1157   -0.2036 C   0  0  0  0  0  0  0  0  0  0  0  0
    2.9134    7.0984   -0.5501 N   0  0  0  0  0  0  0  0  0  0  0  0
    3.2160    7.6566   -1.7238 C   0  0  0  0  0  0  0  0  0  0  0  0
    4.5085    7.6798   -2.0768 F   0  0  0  0  0  0  0  0  0  0  0  0
    2.3470    8.2273   -2.5649 N   0  0  0  0  0  0  0  0  0  0  0  0
    1.0552    8.2394   -2.2138 C   0  0  0  0  0  0  0  0  0  0  0  0
    0.6026    7.6756   -1.0115 C   0  0  0  0  0  0  0  0  0  0  0  0
   -0.7802    7.7372   -0.6923 C   0  0  0  0  0  0  0  0  0  0  0  0
   -1.6887    8.3545   -1.5609 C   0  0  0  0  0  0  0  0  0  0  0  0
   -3.1140    8.4296   -1.2186 C   0  0  0  0  0  0  0  0  0  0  0  0
   -3.5622    7.9118   -0.2081 O   0  0  0  0  0  0  0  0  0  0  0  0
   -4.0088    9.1653   -2.1888 C   0  0  0  0  0  0  0  0  0  0  0  0
   -5.1000    9.5914   -1.8383 O   0  0  0  0  0  0  0  0  0  0  0  0
   -3.4573    9.2497   -3.5876 C   0  0  1  0  0  0  0  0  0  0  0  0
   -2.0576    9.5406   -3.6527 O   0  0  0  0  0  0  0  0  0  0  0  0
   -1.2479    8.9101   -2.7495 C   0  0  0  0  0  0  0  0  0  0  0  0
    0.1161    8.8508   -3.0506 C   0  0  0  0  0  0  0  0  0  0  0  0
    0.5334    9.4079   -4.2017 F   0  0  0  0  0  0  0  0  0  0  0  0
   -3.7685    8.0130   -4.3815 C   0  0  1  0  0  0  0  0  0  0  0  0
   -3.2477    6.7632   -3.8750 O   0  0  0  0  0  0  0  0  0  0  0  0
   -5.0775    7.9140   -4.9298 O   0  0  0  0  0  0  0  0  0  0  0  0
   -4.0780    8.1075   -5.7954 C   0  0  0  0  0  0  0  0  0  0  0  0
   -3.9204    8.9993   -6.6129 O   0  0  0  0  0  0  0  0  0  0  0  0
    1.0415    2.0149    0.0296 C   0  0  0  0  0  0  0  0  0  0  0  0
    1.4054    2.2433   -1.1142 O   0  0  0  0  0  0  0  0  0  0  0  0
    0.6377    0.6160    0.4539 C   0  0  0  0  0  0  0  0  0  0  0  0
    0.5413   -0.2924   -0.3551 O   0  0  0  0  0  0  0  0  0  0  0  0
    0.2967    0.3737    1.9070 C   0  0  0  0  0  0  0  0  0  0  0  0
    0.5292   -0.6798    2.4715 O   0  0  0  0  0  0  0  0  0  0  0  0
  1  2  1  0  0  0  0
  2  3  2  0  0  0  0
  3  4  1  0  0  0  0
  3 53  1  0  0  0  0
  4  5  1  0  0  0  0
  5  6  1  6  0  0  0
  5 49  1  0  0  0  0
  6  7  1  0  0  0  0
  7  8  2  0  0  0  0
  7 12  1  0  0  0  0
  8  9  1  0  0  0  0
  8 26  1  0  0  0  0
  9 10  1  0  0  0  0
 10 11  2  0  0  0  0
 10 21  1  0  0  0  0
 11 12  1  0  0  0  0
 11 13  1  0  0  0  0
 13 14  1  0  0  0  0
 13 19  2  0  0  0  0
 14 15  1  0  0  0  0
 15 16  2  0  0  0  0
 15 17  1  0  0  0  0
 17 18  1  0  0  0  0
 18 19  1  0  0  0  0
 18 25  1  0  0  0  0
 19 20  1  0  0  0  0
 20 21  2  0  0  0  0
 20 22  1  0  0  0  0
 22 23  1  0  0  0  0
 22 24  1  0  0  0  0
 23 24  1  0  0  0  0
 26 27  2  0  0  0  0
 26 32  1  0  0  0  0
 27 28  1  0  0  0  0
 28 29  1  0  0  0  0
 28 30  2  0  0  0  0
 30 31  1  0  0  0  0
 31 32  2  0  0  0  0
 31 42  1  0  0  0  0
 32 33  1  0  0  0  0
 33 34  2  0  0  0  0
 34 35  1  0  0  0  0
 34 41  1  0  0  0  0
 35 36  2  0  0  0  0
 35 37  1  0  0  0  0
 37 38  2  0  0  0  0
 39 37  1  1  0  0  0
 39 40  1  0  0  0  0
 39 44  1  0  0  0  0
 40 41  1  0  0  0  0
 41 42  2  0  0  0  0
 42 43  1  0  0  0  0
 44 45  1  1  0  0  0
 44 46  1  0  0  0  0
 44 47  1  0  0  0  0
 46 47  1  0  0  0  0
 47 48  2  0  0  0  0
 49 50  2  0  0  0  0
 49 51  1  0  0  0  0
 51 52  2  0  0  0  0
 51 53  1  0  0  0  0
 53 54  2  0  0  0  0
M  END
$$$$