
 OpenBabel11222014213D

 54 62  0  0  1  0  0  0  0  0999 V2000
    3.8040    0.8018   -3.3247 O   0  0  0  0  0  0  0  0  0  0  0  0
    2.5343    0.7812   -2.8032 C   0  0  0  0  0  0  0  0  0  0  0  0
    1.8297   -0.3508   -2.6835 C   0  0  0  0  0  0  0  0  0  0  0  0
    2.3777   -1.5484   -3.0908 O   0  0  0  0  0  0  0  0  0  0  0  0
    1.7494   -2.7366   -2.6552 C   0  0  2  0  0  0  0  0  0  0  0  0
    2.3205   -3.9032   -3.2992 O   0  0  0  0  0  0  0  0  0  0  0  0
    2.2894   -3.9843   -4.6890 C   0  0  0  0  0  0  0  0  0  0  0  0
    2.1156   -5.1739   -5.2963 C   0  0  0  0  0  0  0  0  0  0  0  0
    2.1911   -5.3526   -6.6773 O   0  0  0  0  0  0  0  0  0  0  0  0
    2.5407   -4.2745   -7.4930 C   0  0  0  0  0  0  0  0  0  0  0  0
    2.7367   -3.0467   -6.9772 C   0  0  0  0  0  0  0  0  0  0  0  0
    2.5825   -2.7563   -5.5119 C   0  0  0  0  0  0  0  0  0  0  0  0
    3.0684   -1.8643   -7.8440 C   0  0  3  0  0  0  0  0  0  0  0  0
    4.3173   -1.3325   -7.4465 O   0  0  0  0  0  0  0  0  0  0  0  0
    4.6712   -0.1805   -8.0859 C   0  0  0  0  0  0  0  0  0  0  0  0
    5.4969    0.5891   -7.6271 O   0  0  0  0  0  0  0  0  0  0  0  0
    3.9966    0.0539   -9.2414 O   0  0  0  0  0  0  0  0  0  0  0  0
    3.6413   -1.0520  -10.0620 C   0  0  3  0  0  0  0  0  0  0  0  0
    3.2353   -2.2433   -9.2649 C   0  0  0  0  0  0  0  0  0  0  0  0
    3.0331   -3.4992   -9.7224 C   0  0  0  0  0  0  0  0  0  0  0  0
    2.6660   -4.5104   -8.8441 O   0  3  0  0  0  0  0  0  0  0  0  0
    3.1200   -3.8933  -11.1513 C   0  0  0  0  0  0  0  0  0  0  0  0
    2.9689   -5.2741  -11.5307 O   0  0  0  0  0  0  0  0  0  0  0  0
    1.9437   -4.3174  -11.8553 O   0  0  0  0  0  0  0  0  0  0  0  0
    2.4937   -0.7123  -10.8116 O   0  0  0  0  0  0  0  0  0  0  0  0
    1.8695   -6.4088   -4.5312 C   0  0  0  0  0  0  0  0  0  0  0  0
    0.5652   -6.7185   -4.1562 C   0  0  0  0  0  0  0  0  0  0  0  0
    0.3010   -7.8492   -3.4946 N   0  3  0  0  0  0  0  0  0  0  0  0
   -0.9730   -8.1283   -3.1575 F   0  0  0  0  0  0  0  0  0  0  0  0
    1.2400   -8.7229   -3.1803 N   0  0  0  0  0  0  0  0  0  0  0  0
    2.5159   -8.4748   -3.5067 C   0  0  0  0  0  0  0  0  0  0  0  0
    2.9000   -7.2949   -4.1669 C   0  0  0  0  0  0  0  0  0  0  0  0
    4.2733   -7.0738   -4.4491 C   0  0  0  0  0  0  0  0  0  0  0  0
    5.2436   -8.0458   -4.1720 C   0  0  0  0  0  0  0  0  0  0  0  0
    6.6604   -7.8542   -4.6524 C   0  0  3  0  0  0  0  0  0  0  0  0
    6.6636   -7.7758   -6.0162 F   0  0  0  0  0  0  0  0  0  0  0  0
    7.5463   -9.0069   -4.2080 C   0  0  3  0  0  0  0  0  0  0  0  0
    8.7249   -8.9928   -4.8739 F   0  0  0  0  0  0  0  0  0  0  0  0
    6.8131  -10.3330   -4.3752 C   0  0  1  0  0  0  0  0  0  0  0  0
    5.6533  -10.3430   -3.5030 O   0  0  0  0  0  0  0  0  0  0  0  0
    4.8313   -9.2497   -3.6072 C   0  0  0  0  0  0  0  0  0  0  0  0
    3.4962   -9.4232   -3.2298 C   0  0  0  0  0  0  0  0  0  0  0  0
    3.1268  -10.5805   -2.6573 F   0  0  0  0  0  0  0  0  0  0  0  0
    6.4963  -10.7153   -5.8081 C   0  0  1  0  0  0  0  0  0  0  0  0
    7.6330  -10.8383   -6.6860 O   0  0  0  0  0  0  0  0  0  0  0  0
    5.5471  -11.8024   -5.9366 O   0  0  0  0  0  0  0  0  0  0  0  0
    5.2009  -10.6223   -6.4599 C   0  0  0  0  0  0  0  0  0  0  0  0
    4.2123   -9.9300   -6.3464 O   0  0  0  0  0  0  0  0  0  0  0  0
    0.2356   -2.7839   -2.8121 C   0  0  0  0  0  0  0  0  0  0  0  0
   -0.3995   -3.7818   -3.1402 O   0  0  0  0  0  0  0  0  0  0  0  0
   -0.4252   -1.4549   -2.5501 C   0  0  0  0  0  0  0  0  0  0  0  0
   -1.6307   -1.3484   -2.7036 O   0  0  0  0  0  0  0  0  0  0  0  0
    0.4273   -0.2539   -2.1978 C   0  0  0  0  0  0  0  0  0  0  0  0
   -0.0260    0.6965   -1.5882 O   0  0  0  0  0  0  0  0  0  0  0  0
  1  2  1  0  0  0  0
  2  3  2  0  0  0  0
  3  4  1  0  0  0  0
  3 53  1  0  0  0  0
  4  5  1  0  0  0  0
  5  6  1  6  0  0  0
  5 49  1  0  0  0  0
  6  7  1  0  0  0  0
  7  8  2  0  0  0  0
  7 12  1  0  0  0  0
  8  9  1  0  0  0  0
  8 26  1  0  0  0  0
  9 10  1  0  0  0  0
 10 11  2  0  0  0  0
 10 21  1  0  0  0  0
 11 12  1  0  0  0  0
 11 13  1  0  0  0  0
 13 14  1  0  0  0  0
 13 19  1  0  0  0  0
 14 15  1  0  0  0  0
 15 16  2  0  0  0  0
 15 17  1  0  0  0  0
 17 18  1  0  0  0  0
 18 19  1  0  0  0  0
 18 25  1  0  0  0  0
 19 20  2  0  0  0  0
 20 21  1  0  0  0  0
 20 22  1  0  0  0  0
 22 23  1  0  0  0  0
 22 24  1  0  0  0  0
 23 24  1  0  0  0  0
 26 27  2  0  0  0  0
 26 32  1  0  0  0  0
 27 28  1  0  0  0  0
 28 29  1  0  0  0  0
 28 30  2  0  0  0  0
 30 31  1  0  0  0  0
 31 32  2  0  0  0  0
 31 42  1  0  0  0  0
 32 33  1  0  0  0  0
 33 34  2  0  0  0  0
 34 35  1  0  0  0  0
 34 41  1  0  0  0  0
 35 36  1  0  0  0  0
 35 37  1  0  0  0  0
 37 38  1  0  0  0  0
 37 39  1  0  0  0  0
 39 40  1  1  0  0  0
 39 44  1  0  0  0  0
 40 41  1  0  0  0  0
 41 42  2  0  0  0  0
 42 43  1  0  0  0  0
 44 45  1  6  0  0  0
 44 46  1  0  0  0  0
 44 47  1  0  0  0  0
 46 47  1  0  0  0  0
 47 48  2  0  0  0  0
 49 50  2  0  0  0  0
 49 51  1  0  0  0  0
 51 52  2  0  0  0  0
 51 53  1  0  0  0  0
 53 54  2  0  0  0  0
M  CHG  2  21   1  28   1
M  END
$$$$