
 OpenBabel11262017513D

 52 59  0  0  1  0  0  0  0  0999 V2000
    2.3039   -3.5192   -4.4900 O   0  0  0  0  0  0  0  0  0  0  0  0
    2.4339   -2.2931   -3.8818 C   0  0  0  0  0  0  0  0  0  0  0  0
    2.3169   -2.1152   -2.5596 C   0  0  0  0  0  0  0  0  0  0  0  0
    1.9745   -3.1687   -1.7346 O   0  0  0  0  0  0  0  0  0  0  0  0
    2.6630   -3.2035   -0.4899 C   0  0  2  0  0  0  0  0  0  0  0  0
    2.3480   -4.4095    0.2431 O   0  0  0  0  0  0  0  0  0  0  0  0
    2.6845   -5.6350   -0.3310 C   0  0  0  0  0  0  0  0  0  0  0  0
    2.4153   -6.8162    0.2812 C   0  0  0  0  0  0  0  0  0  0  0  0
    2.7082   -8.0436   -0.3467 O   0  0  0  0  0  0  0  0  0  0  0  0
    3.3201   -8.0861   -1.6028 C   0  0  0  0  0  0  0  0  0  0  0  0
    3.6913   -6.9531   -2.2172 C   0  0  0  0  0  0  0  0  0  0  0  0
    3.3533   -5.6141   -1.6782 C   0  0  0  0  0  0  0  0  0  0  0  0
    4.4445   -6.9258   -3.5157 C   0  0  3  0  0  0  0  0  0  0  0  0
    5.7105   -6.3542   -3.2263 O   0  0  0  0  0  0  0  0  0  0  0  0
    6.7322   -6.4510   -4.1175 C   0  0  0  0  0  0  0  0  0  0  0  0
    7.7490   -5.7921   -3.9703 O   0  0  0  0  0  0  0  0  0  0  0  0
    6.5947   -7.3647   -5.1087 O   0  0  0  0  0  0  0  0  0  0  0  0
    5.4586   -8.2058   -5.2802 C   0  0  3  0  0  0  0  0  0  0  0  0
    4.6695   -8.2838   -4.0343 C   0  0  0  0  0  0  0  0  0  0  0  0
    4.2234   -9.3746   -3.3945 C   0  0  0  0  0  0  0  0  0  0  0  0
    3.5515   -9.3103   -2.1957 O   0  3  0  0  0  0  0  0  0  0  0  0
    4.4595  -10.5894   -3.9277 F   0  0  0  0  0  0  0  0  0  0  0  0
    4.6117   -7.6405   -6.2606 O   0  0  0  0  0  0  0  0  0  0  0  0
    1.7825   -6.9289    1.6476 C   0  0  0  0  0  0  0  0  0  0  0  0
    2.0166   -5.9171    2.5856 C   0  0  0  0  0  0  0  0  0  0  0  0
    1.4403   -5.9261    3.7903 N   0  3  0  0  0  0  0  0  0  0  0  0
    1.6933   -4.9147    4.6439 F   0  0  0  0  0  0  0  0  0  0  0  0
    0.6352   -6.8885    4.1821 N   0  0  0  0  0  0  0  0  0  0  0  0
    0.3907   -7.9180    3.3717 C   0  0  0  0  0  0  0  0  0  0  0  0
    0.9611   -8.0092    2.0823 C   0  0  0  0  0  0  0  0  0  0  0  0
    0.6574   -9.1737    1.3326 C   0  0  0  0  0  0  0  0  0  0  0  0
   -0.1737  -10.1877    1.8282 C   0  0  0  0  0  0  0  0  0  0  0  0
   -0.4317  -11.3774    1.0171 C   0  0  0  0  0  0  0  0  0  0  0  0
    0.2237  -11.5730    0.0027 O   0  0  0  0  0  0  0  0  0  0  0  0
   -1.5143  -12.3166    1.5037 C   0  0  0  0  0  0  0  0  0  0  0  0
   -1.6393  -13.4161    0.9874 O   0  0  0  0  0  0  0  0  0  0  0  0
   -2.4025  -11.7450    2.5931 C   0  0  1  0  0  0  0  0  0  0  0  0
   -1.6809  -10.9482    3.5576 O   0  0  0  0  0  0  0  0  0  0  0  0
   -0.7696  -10.0603    3.0627 C   0  0  0  0  0  0  0  0  0  0  0  0
   -0.4622   -8.9312    3.8225 C   0  0  0  0  0  0  0  0  0  0  0  0
   -1.0383   -8.7917    5.0272 F   0  0  0  0  0  0  0  0  0  0  0  0
   -3.6045  -11.0328    2.0098 C   0  0  1  0  0  0  0  0  0  0  0  0
   -4.4667  -11.8201    1.1704 O   0  0  0  0  0  0  0  0  0  0  0  0
   -4.2742  -10.1056    2.8779 O   0  0  0  0  0  0  0  0  0  0  0  0
   -3.6708   -9.5969    1.8009 C   0  0  0  0  0  0  0  0  0  0  0  0
   -2.8028   -8.7478    1.6648 O   0  0  0  0  0  0  0  0  0  0  0  0
    2.2466   -1.9742    0.2844 C   0  0  0  0  0  0  0  0  0  0  0  0
    1.7278   -1.9722    1.3897 O   0  0  0  0  0  0  0  0  0  0  0  0
    2.5969   -0.7187   -0.4779 C   0  0  0  0  0  0  0  0  0  0  0  0
    3.0817    0.2261    0.1196 O   0  0  0  0  0  0  0  0  0  0  0  0
    2.5125   -0.7462   -1.9974 C   0  0  0  0  0  0  0  0  0  0  0  0
    2.6373    0.2555   -2.6771 O   0  0  0  0  0  0  0  0  0  0  0  0
  1  2  1  0  0  0  0
  2  3  2  0  0  0  0
  3  4  1  0  0  0  0
  3 51  1  0  0  0  0
  4  5  1  0  0  0  0
  5  6  1  1  0  0  0
  5 47  1  0  0  0  0
  6  7  1  0  0  0  0
  7  8  2  0  0  0  0
  7 12  1  0  0  0  0
  8  9  1  0  0  0  0
  8 24  1  0  0  0  0
  9 10  1  0  0  0  0
 10 11  2  0  0  0  0
 10 21  1  0  0  0  0
 11 12  1  0  0  0  0
 11 13  1  0  0  0  0
 13 14  1  0  0  0  0
 13 19  1  0  0  0  0
 14 15  1  0  0  0  0
 15 16  2  0  0  0  0
 15 17  1  0  0  0  0
 17 18  1  0  0  0  0
 18 19  1  0  0  0  0
 18 23  1  0  0  0  0
 19 20  2  0  0  0  0
 20 21  1  0  0  0  0
 20 22  1  0  0  0  0
 24 25  2  0  0  0  0
 24 30  1  0  0  0  0
 25 26  1  0  0  0  0
 26 27  1  0  0  0  0
 26 28  2  0  0  0  0
 28 29  1  0  0  0  0
 29 30  2  0  0  0  0
 29 40  1  0  0  0  0
 30 31  1  0  0  0  0
 31 32  2  0  0  0  0
 32 33  1  0  0  0  0
 32 39  1  0  0  0  0
 33 34  2  0  0  0  0
 33 35  1  0  0  0  0
 35 36  2  0  0  0  0
 37 35  1  6  0  0  0
 37 38  1  0  0  0  0
 37 42  1  0  0  0  0
 38 39  1  0  0  0  0
 39 40  2  0  0  0  0
 40 41  1  0  0  0  0
 42 43  1  6  0  0  0
 42 44  1  0  0  0  0
 42 45  1  0  0  0  0
 44 45  1  0  0  0  0
 45 46  2  0  0  0  0
 47 48  2  0  0  0  0
 47 49  1  0  0  0  0
 49 50  2  0  0  0  0
 49 51  1  0  0  0  0
 51 52  2  0  0  0  0
M  CHG  2  21   1  26   1
M  END
$$$$