
 OpenBabel11262012333D

 54 62  0  0  1  0  0  0  0  0999 V2000
    3.7246    0.3281   -2.2918 F   0  0  0  0  0  0  0  0  0  0  0  0
    2.5672    0.4842   -1.6239 C   0  0  0  0  0  0  0  0  0  0  0  0
    2.2961    1.5962   -0.9346 C   0  0  0  0  0  0  0  0  0  0  0  0
    3.2204    2.6319   -0.8397 O   0  0  0  0  0  0  0  0  0  0  0  0
    2.7046    3.9437   -0.5685 C   0  0  2  0  0  0  0  0  0  0  0  0
    3.8153    4.8435   -0.3391 O   0  0  0  0  0  0  0  0  0  0  0  0
    3.5729    6.1908   -0.0677 C   0  0  0  0  0  0  0  0  0  0  0  0
    4.3918    6.8948    0.7514 C   0  0  0  0  0  0  0  0  0  0  0  0
    4.2379    8.2745    0.9374 O   0  0  0  0  0  0  0  0  0  0  0  0
    3.2670    8.9856    0.2325 C   0  0  0  0  0  0  0  0  0  0  0  0
    2.3447    8.3469   -0.5118 C   0  0  0  0  0  0  0  0  0  0  0  0
    2.3780    6.8575   -0.7114 C   0  0  0  0  0  0  0  0  0  0  0  0
    1.2313    9.0914   -1.2047 C   0  0  3  0  0  0  0  0  0  0  0  0
    0.0040    8.7131   -0.6053 O   0  0  0  0  0  0  0  0  0  0  0  0
   -1.1208    9.3160   -1.0914 C   0  0  0  0  0  0  0  0  0  0  0  0
   -2.2350    8.8875   -0.8453 O   0  0  0  0  0  0  0  0  0  0  0  0
   -0.9033   10.3834   -1.8999 O   0  0  0  0  0  0  0  0  0  0  0  0
    0.2062   11.2445   -1.6793 C   0  0  3  0  0  0  0  0  0  0  0  0
    1.3372   10.5534   -1.0069 C   0  0  0  0  0  0  0  0  0  0  0  0
    2.3221   11.1376   -0.2920 C   0  0  0  0  0  0  0  0  0  0  0  0
    3.2803   10.3615    0.3408 O   0  3  0  0  0  0  0  0  0  0  0  0
    2.4384   12.6037   -0.1152 C   0  0  0  0  0  0  0  0  0  0  0  0
    1.8051   13.2647    0.9868 O   0  0  0  0  0  0  0  0  0  0  0  0
    3.2412   13.1512    0.9433 O   0  0  0  0  0  0  0  0  0  0  0  0
    0.7351   11.6459   -2.9281 O   0  0  0  0  0  0  0  0  0  0  0  0
    5.4698    6.2651    1.5866 C   0  0  0  0  0  0  0  0  0  0  0  0
    5.2498    4.9845    2.0947 C   0  0  0  0  0  0  0  0  0  0  0  0
    6.1468    4.3572    2.8547 N   0  3  0  0  0  0  0  0  0  0  0  0
    5.8921    3.0979    3.2590 F   0  0  0  0  0  0  0  0  0  0  0  0
    7.2646    4.9279    3.2379 N   0  0  0  0  0  0  0  0  0  0  0  0
    7.5359    6.1707    2.8385 C   0  0  0  0  0  0  0  0  0  0  0  0
    6.6764    6.8935    1.9811 C   0  0  0  0  0  0  0  0  0  0  0  0
    7.0929    8.1844    1.5768 C   0  0  0  0  0  0  0  0  0  0  0  0
    8.2977    8.7414    2.0264 C   0  0  0  0  0  0  0  0  0  0  0  0
    8.7116   10.0597    1.5538 C   0  0  0  0  0  0  0  0  0  0  0  0
    7.9106   10.7615    0.9523 O   0  0  0  0  0  0  0  0  0  0  0  0
   10.1453   10.4738    1.8139 C   0  0  0  0  0  0  0  0  0  0  0  0
   10.5530   11.5381    1.3746 O   0  0  0  0  0  0  0  0  0  0  0  0
   10.9982    9.4560    2.5469 C   0  0  1  0  0  0  0  0  0  0  0  0
   10.2859    8.5285    3.3813 O   0  0  0  0  0  0  0  0  0  0  0  0
    9.1069    8.0471    2.8974 C   0  0  0  0  0  0  0  0  0  0  0  0
    8.7096    6.7704    3.2921 C   0  0  0  0  0  0  0  0  0  0  0  0
    9.5072    6.0741    4.1171 F   0  0  0  0  0  0  0  0  0  0  0  0
   11.9527    8.7766    1.5989 C   0  0  1  0  0  0  0  0  0  0  0  0
   12.8637    9.5968    0.9434 F   0  0  0  0  0  0  0  0  0  0  0  0
   12.4621    7.5037    2.0364 O   0  0  0  0  0  0  0  0  0  0  0  0
   11.6605    7.5059    0.9662 C   0  0  0  0  0  0  0  0  0  0  0  0
   10.6003    6.9413    0.7443 O   0  0  0  0  0  0  0  0  0  0  0  0
    1.8277    3.8728    0.6686 C   0  0  0  0  0  0  0  0  0  0  0  0
    2.0055    4.4882    1.7115 O   0  0  0  0  0  0  0  0  0  0  0  0
    0.7025    2.9092    0.4992 C   0  0  0  0  0  0  0  0  0  0  0  0
   -0.4083    3.2301    0.8775 O   0  0  0  0  0  0  0  0  0  0  0  0
    0.9869    1.6145   -0.2198 C   0  0  0  0  0  0  0  0  0  0  0  0
    0.2060    0.6825   -0.1783 O   0  0  0  0  0  0  0  0  0  0  0  0
  1  2  1  0  0  0  0
  2  3  2  0  0  0  0
  3  4  1  0  0  0  0
  3 53  1  0  0  0  0
  4  5  1  0  0  0  0
  5  6  1  1  0  0  0
  5 49  1  0  0  0  0
  6  7  1  0  0  0  0
  7  8  2  0  0  0  0
  7 12  1  0  0  0  0
  8  9  1  0  0  0  0
  8 26  1  0  0  0  0
  9 10  1  0  0  0  0
 10 11  2  0  0  0  0
 10 21  1  0  0  0  0
 11 12  1  0  0  0  0
 11 13  1  0  0  0  0
 13 14  1  0  0  0  0
 13 19  1  0  0  0  0
 14 15  1  0  0  0  0
 15 16  2  0  0  0  0
 15 17  1  0  0  0  0
 17 18  1  0  0  0  0
 18 19  1  0  0  0  0
 18 25  1  0  0  0  0
 19 20  2  0  0  0  0
 20 21  1  0  0  0  0
 20 22  1  0  0  0  0
 22 23  1  0  0  0  0
 22 24  1  0  0  0  0
 23 24  1  0  0  0  0
 26 27  2  0  0  0  0
 26 32  1  0  0  0  0
 27 28  1  0  0  0  0
 28 29  1  0  0  0  0
 28 30  2  0  0  0  0
 30 31  1  0  0  0  0
 31 32  2  0  0  0  0
 31 42  1  0  0  0  0
 32 33  1  0  0  0  0
 33 34  2  0  0  0  0
 34 35  1  0  0  0  0
 34 41  1  0  0  0  0
 35 36  2  0  0  0  0
 35 37  1  0  0  0  0
 37 38  2  0  0  0  0
 39 37  1  6  0  0  0
 39 40  1  0  0  0  0
 39 44  1  0  0  0  0
 40 41  1  0  0  0  0
 41 42  2  0  0  0  0
 42 43  1  0  0  0  0
 44 45  1  6  0  0  0
 44 46  1  0  0  0  0
 44 47  1  0  0  0  0
 46 47  1  0  0  0  0
 47 48  2  0  0  0  0
 49 50  2  0  0  0  0
 49 51  1  0  0  0  0
 51 52  2  0  0  0  0
 51 53  1  0  0  0  0
 53 54  2  0  0  0  0
M  CHG  2  21   1  28   1
M  END
$$$$