
 OpenBabel11222000563D

 54 63  0  0  1  0  0  0  0  0999 V2000
   -0.5498    4.0677   -5.7182 O   0  0  0  0  0  0  0  0  0  0  0  0
   -0.4878    2.7900   -5.2241 C   0  0  0  0  0  0  0  0  0  0  0  0
    0.5919    2.3011   -4.6021 C   0  0  0  0  0  0  0  0  0  0  0  0
    1.7518    3.0484   -4.4758 O   0  0  0  0  0  0  0  0  0  0  0  0
    2.3565    2.9487   -3.2002 C   0  0  2  0  0  0  0  0  0  0  0  0
    3.6616    3.5937   -3.2257 O   0  0  0  0  0  0  0  0  0  0  0  0
    3.8145    4.9351   -2.9201 C   0  0  0  0  0  0  0  0  0  0  0  0
    5.0347    5.5321   -2.9678 C   0  0  0  0  0  0  0  0  0  0  0  0
    5.1759    6.8973   -2.6887 O   0  0  0  0  0  0  0  0  0  0  0  0
    4.0637    7.7180   -2.5311 C   0  0  0  0  0  0  0  0  0  0  0  0
    2.8317    7.1963   -2.4046 C   0  0  0  0  0  0  0  0  0  0  0  0
    2.5852    5.7233   -2.5203 C   0  0  0  0  0  0  0  0  0  0  0  0
    1.6203    8.0604   -2.1831 C   0  0  3  0  0  0  0  0  0  0  0  0
    1.1000    7.7773   -0.8972 O   0  0  0  0  0  0  0  0  0  0  0  0
   -0.0253    8.4689   -0.5464 C   0  0  0  0  0  0  0  0  0  0  0  0
   -0.7342    8.1163    0.3724 O   0  0  0  0  0  0  0  0  0  0  0  0
   -0.3074    9.5371   -1.3385 O   0  0  0  0  0  0  0  0  0  0  0  0
    0.7478   10.3109   -1.8970 C   0  0  3  0  0  0  0  0  0  0  0  0
    1.9642    9.4995   -2.1690 C   0  0  0  0  0  0  0  0  0  0  0  0
    3.2199    9.9628   -2.3536 C   0  0  0  0  0  0  0  0  0  0  0  0
    4.2756    9.0794   -2.5109 O   0  3  0  0  0  0  0  0  0  0  0  0
    3.5712   11.4005   -2.3803 C   0  0  0  0  0  0  0  0  0  0  0  0
    3.9452   12.0924   -1.1842 O   0  0  0  0  0  0  0  0  0  0  0  0
    4.9360   11.8148   -2.1929 O   0  0  0  0  0  0  0  0  0  0  0  0
    0.3437   10.7807   -3.1676 O   0  0  0  0  0  0  0  0  0  0  0  0
    6.3442    4.8430   -3.2917 C   0  0  0  0  0  0  0  0  0  0  0  0
    6.5189    3.5040   -2.9267 C   0  0  0  0  0  0  0  0  0  0  0  0
    7.6512    2.8465   -3.1998 N   0  3  0  0  0  0  0  0  0  0  0  0
    7.7612    1.5530   -2.8384 F   0  0  0  0  0  0  0  0  0  0  0  0
    8.6721    3.4108   -3.8106 N   0  0  0  0  0  0  0  0  0  0  0  0
    8.6100    4.6931   -4.1678 C   0  0  0  0  0  0  0  0  0  0  0  0
    7.4641    5.4802   -3.9184 C   0  0  0  0  0  0  0  0  0  0  0  0
    7.5315    6.8385   -4.3316 C   0  0  0  0  0  0  0  0  0  0  0  0
    8.6626    7.3864   -4.9565 C   0  0  0  0  0  0  0  0  0  0  0  0
    8.6538    8.7983   -5.3832 C   0  0  0  0  0  0  0  0  0  0  0  0
    7.7679    9.5312   -4.9498 O   0  0  0  0  0  0  0  0  0  0  0  0
    9.7129    9.1598   -6.4037 C   0  0  3  0  0  0  0  0  0  0  0  0
   10.0265   10.5395   -6.4905 O   0  0  0  0  0  0  0  0  0  0  0  0
   10.8593   10.6732   -7.7113 O   0  0  0  0  0  0  0  0  0  0  0  0
   12.1664   10.4466   -7.3812 C   0  0  0  0  0  0  0  0  0  0  0  0
   13.0281    9.6504   -6.8610 N   0  0  0  0  0  0  0  0  0  0  0  0
   11.9792    8.8346   -7.0723 C   0  0  2  0  0  0  0  0  0  0  0  0
   10.9986    8.4592   -6.0028 C   0  0  2  0  0  0  0  0  0  0  0  0
   10.8617    7.0292   -5.9046 O   0  0  0  0  0  0  0  0  0  0  0  0
    9.7604    6.5958   -5.2237 C   0  0  0  0  0  0  0  0  0  0  0  0
    9.7146    5.2606   -4.8195 C   0  0  0  0  0  0  0  0  0  0  0  0
   10.7779    4.4785   -5.0665 F   0  0  0  0  0  0  0  0  0  0  0  0
   12.0362    8.0090   -8.2438 O   0  0  0  0  0  0  0  0  0  0  0  0
    2.6746    1.5337   -2.7500 C   0  0  0  0  0  0  0  0  0  0  0  0
    3.5851    1.2551   -1.9770 O   0  0  0  0  0  0  0  0  0  0  0  0
    1.7682    0.4811   -3.3374 C   0  0  0  0  0  0  0  0  0  0  0  0
    2.0774   -0.6950   -3.2454 O   0  0  0  0  0  0  0  0  0  0  0  0
    0.5214    0.9077   -4.0788 C   0  0  0  0  0  0  0  0  0  0  0  0
   -0.4473    0.1781   -4.1841 O   0  0  0  0  0  0  0  0  0  0  0  0
  1  2  1  0  0  0  0
  2  3  2  0  0  0  0
  3  4  1  0  0  0  0
  3 53  1  0  0  0  0
  4  5  1  0  0  0  0
  5  6  1  6  0  0  0
  5 49  1  0  0  0  0
  6  7  1  0  0  0  0
  7  8  2  0  0  0  0
  7 12  1  0  0  0  0
  8  9  1  0  0  0  0
  8 26  1  0  0  0  0
  9 10  1  0  0  0  0
 10 11  2  0  0  0  0
 10 21  1  0  0  0  0
 11 12  1  0  0  0  0
 11 13  1  0  0  0  0
 13 14  1  0  0  0  0
 13 19  1  0  0  0  0
 14 15  1  0  0  0  0
 15 16  2  0  0  0  0
 15 17  1  0  0  0  0
 17 18  1  0  0  0  0
 18 19  1  0  0  0  0
 18 25  1  0  0  0  0
 19 20  2  0  0  0  0
 20 21  1  0  0  0  0
 20 22  1  0  0  0  0
 22 23  1  0  0  0  0
 22 24  1  0  0  0  0
 23 24  1  0  0  0  0
 26 27  2  0  0  0  0
 26 32  1  0  0  0  0
 27 28  1  0  0  0  0
 28 29  1  0  0  0  0
 28 30  2  0  0  0  0
 30 31  1  0  0  0  0
 31 32  2  0  0  0  0
 31 46  1  0  0  0  0
 32 33  1  0  0  0  0
 33 34  2  0  0  0  0
 34 35  1  0  0  0  0
 34 45  1  0  0  0  0
 35 36  2  0  0  0  0
 35 37  1  0  0  0  0
 37 38  1  0  0  0  0
 37 43  1  0  0  0  0
 38 39  1  0  0  0  0
 39 40  1  0  0  0  0
 40 41  2  0  0  0  0
 40 42  1  0  0  0  0
 41 42  1  0  0  0  0
 42 43  1  0  0  0  0
 42 48  1  1  0  0  0
 43 44  1  6  0  0  0
 44 45  1  0  0  0  0
 45 46  2  0  0  0  0
 46 47  1  0  0  0  0
 49 50  2  0  0  0  0
 49 51  1  0  0  0  0
 51 52  2  0  0  0  0
 51 53  1  0  0  0  0
 53 54  2  0  0  0  0
M  CHG  2  21   1  28   1
M  END
$$$$