
 OpenBabel11222020163D

 54 62  0  0  1  0  0  0  0  0999 V2000
    2.4936    6.7140    2.8077 O   0  0  0  0  0  0  0  0  0  0  0  0
    2.0036    6.0476    1.7149 C   0  0  0  0  0  0  0  0  0  0  0  0
    1.7852    4.7268    1.7000 C   0  0  0  0  0  0  0  0  0  0  0  0
    2.1328    3.9244    2.7721 O   0  0  0  0  0  0  0  0  0  0  0  0
    1.3353    2.7837    3.0349 C   0  0  2  0  0  0  0  0  0  0  0  0
    2.0929    1.7600    3.7741 O   0  0  0  0  0  0  0  0  0  0  0  0
    2.6124    1.9792    5.0496 C   0  0  0  0  0  0  0  0  0  0  0  0
    3.1065    0.9548    5.8049 C   0  0  0  0  0  0  0  0  0  0  0  0
    3.5921    1.1868    7.0991 O   0  0  0  0  0  0  0  0  0  0  0  0
    3.5685    2.4494    7.6802 C   0  0  0  0  0  0  0  0  0  0  0  0
    3.1333    3.5235    6.9999 C   0  0  0  0  0  0  0  0  0  0  0  0
    2.6768    3.4118    5.5680 C   0  0  0  0  0  0  0  0  0  0  0  0
    3.0842    4.8959    7.6388 C   0  0  3  0  0  0  0  0  0  0  0  0
    1.7253    5.3193    7.6465 O   0  0  0  0  0  0  0  0  0  0  0  0
    1.4572    6.4843    8.2748 C   0  0  0  0  0  0  0  0  0  0  0  0
    0.3376    7.0718    8.0975 N   0  0  0  0  0  0  0  0  0  0  0  0
    2.3898    7.0057    9.0889 O   0  0  0  0  0  0  0  0  0  0  0  0
    3.4212    6.2180    9.6679 C   0  0  3  0  0  0  0  0  0  0  0  0
    3.5257    4.8645    9.0590 C   0  0  0  0  0  0  0  0  0  0  0  0
    3.9546    3.7425    9.6756 C   0  0  0  0  0  0  0  0  0  0  0  0
    4.0009    2.5454    8.9845 O   0  3  0  0  0  0  0  0  0  0  0  0
    4.3873    3.6795   11.0930 C   0  0  0  0  0  0  0  0  0  0  0  0
    3.4524    3.3904   12.1402 O   0  0  0  0  0  0  0  0  0  0  0  0
    4.4416    2.4107   11.7730 O   0  0  0  0  0  0  0  0  0  0  0  0
    4.6718    6.8261    9.4111 O   0  0  0  0  0  0  0  0  0  0  0  0
    3.2053   -0.5103    5.3982 C   0  0  0  0  0  0  0  0  0  0  0  0
    2.2460   -1.0426    4.5352 C   0  0  0  0  0  0  0  0  0  0  0  0
    2.3029   -2.3137    4.1202 N   0  3  0  0  0  0  0  0  0  0  0  0
    1.3372   -2.7783    3.3035 F   0  0  0  0  0  0  0  0  0  0  0  0
    3.2553   -3.1450    4.4892 N   0  0  0  0  0  0  0  0  0  0  0  0
    4.2025   -2.7436    5.3334 C   0  0  0  0  0  0  0  0  0  0  0  0
    4.2225   -1.4262    5.8482 C   0  0  0  0  0  0  0  0  0  0  0  0
    5.2831   -1.1363    6.7468 C   0  0  0  0  0  0  0  0  0  0  0  0
    6.2979   -2.0635    7.0522 C   0  0  0  0  0  0  0  0  0  0  0  0
    7.4639   -1.6220    7.8170 C   0  0  0  0  0  0  0  0  0  0  0  0
    7.6331   -0.4333    8.0448 O   0  0  0  0  0  0  0  0  0  0  0  0
    8.4437   -2.6870    8.2412 C   0  0  0  0  0  0  0  0  0  0  0  0
    9.1632   -2.5044    9.2096 O   0  0  0  0  0  0  0  0  0  0  0  0
    8.4672   -3.8905    7.3219 C   0  0  1  0  0  0  0  0  0  0  0  0
    7.1729   -4.3157    6.8540 O   0  0  0  0  0  0  0  0  0  0  0  0
    6.2541   -3.3482    6.5619 C   0  0  0  0  0  0  0  0  0  0  0  0
    5.1944   -3.6669    5.7127 C   0  0  0  0  0  0  0  0  0  0  0  0
    5.1382   -4.9086    5.2031 F   0  0  0  0  0  0  0  0  0  0  0  0
    9.3683   -3.6184    6.1454 C   0  0  1  0  0  0  0  0  0  0  0  0
    9.0665   -2.4547    5.2455 N   0  0  0  0  0  0  0  0  0  0  0  0
   10.7570   -3.7753    6.4298 O   0  0  0  0  0  0  0  0  0  0  0  0
   10.2338   -4.6701    5.5655 C   0  0  0  0  0  0  0  0  0  0  0  0
   10.5142   -4.8937    4.4149 O   0  0  0  0  0  0  0  0  0  0  0  0
    0.8031    2.0174    1.8236 C   0  0  0  0  0  0  0  0  0  0  0  0
    0.2153    0.9435    1.8969 O   0  0  0  0  0  0  0  0  0  0  0  0
    1.1130    2.6585    0.4967 C   0  0  0  0  0  0  0  0  0  0  0  0
    1.3278    1.9605   -0.4798 O   0  0  0  0  0  0  0  0  0  0  0  0
    1.2586    4.1533    0.4345 C   0  0  0  0  0  0  0  0  0  0  0  0
    0.9508    4.7932   -0.5537 O   0  0  0  0  0  0  0  0  0  0  0  0
  1  2  1  0  0  0  0
  2  3  2  0  0  0  0
  3  4  1  0  0  0  0
  3 53  1  0  0  0  0
  4  5  1  0  0  0  0
  5  6  1  1  0  0  0
  5 49  1  0  0  0  0
  6  7  1  0  0  0  0
  7  8  2  0  0  0  0
  7 12  1  0  0  0  0
  8  9  1  0  0  0  0
  8 26  1  0  0  0  0
  9 10  1  0  0  0  0
 10 11  2  0  0  0  0
 10 21  1  0  0  0  0
 11 12  1  0  0  0  0
 11 13  1  0  0  0  0
 13 14  1  0  0  0  0
 13 19  1  0  0  0  0
 14 15  1  0  0  0  0
 15 16  2  0  0  0  0
 15 17  1  0  0  0  0
 17 18  1  0  0  0  0
 18 19  1  0  0  0  0
 18 25  1  0  0  0  0
 19 20  2  0  0  0  0
 20 21  1  0  0  0  0
 20 22  1  0  0  0  0
 22 23  1  0  0  0  0
 22 24  1  0  0  0  0
 23 24  1  0  0  0  0
 26 27  2  0  0  0  0
 26 32  1  0  0  0  0
 27 28  1  0  0  0  0
 28 29  1  0  0  0  0
 28 30  2  0  0  0  0
 30 31  1  0  0  0  0
 31 32  2  0  0  0  0
 31 42  1  0  0  0  0
 32 33  1  0  0  0  0
 33 34  2  0  0  0  0
 34 35  1  0  0  0  0
 34 41  1  0  0  0  0
 35 36  2  0  0  0  0
 35 37  1  0  0  0  0
 37 38  2  0  0  0  0
 39 37  1  6  0  0  0
 39 40  1  0  0  0  0
 39 44  1  0  0  0  0
 40 41  1  0  0  0  0
 41 42  2  0  0  0  0
 42 43  1  0  0  0  0
 44 45  1  6  0  0  0
 44 46  1  0  0  0  0
 44 47  1  0  0  0  0
 46 47  1  0  0  0  0
 47 48  2  0  0  0  0
 49 50  2  0  0  0  0
 49 51  1  0  0  0  0
 51 52  2  0  0  0  0
 51 53  1  0  0  0  0
 53 54  2  0  0  0  0
M  CHG  2  21   1  28   1
M  END
$$$$