
 OpenBabel11212020163D

 53 61  0  0  1  0  0  0  0  0999 V2000
    6.4466   -0.7202   -7.8076 O   0  0  0  0  0  0  0  0  0  0  0  0
    5.8977   -1.8430   -7.2424 C   0  0  0  0  0  0  0  0  0  0  0  0
    4.9756   -1.8225   -6.2731 C   0  0  0  0  0  0  0  0  0  0  0  0
    4.5331   -0.6170   -5.7600 O   0  0  0  0  0  0  0  0  0  0  0  0
    3.2627   -0.6564   -5.1050 C   0  0  2  0  0  0  0  0  0  0  0  0
    2.9208    0.6424   -4.5866 O   0  0  0  0  0  0  0  0  0  0  0  0
    2.8028    1.6699   -5.5168 C   0  0  0  0  0  0  0  0  0  0  0  0
    3.1068    2.9490   -5.2014 C   0  0  0  0  0  0  0  0  0  0  0  0
    2.9820    4.0076   -6.0975 O   0  0  0  0  0  0  0  0  0  0  0  0
    2.4344    3.7786   -7.3480 C   0  0  0  0  0  0  0  0  0  0  0  0
    2.0682    2.5490   -7.7374 C   0  0  0  0  0  0  0  0  0  0  0  0
    2.2452    1.3431   -6.8836 C   0  0  0  0  0  0  0  0  0  0  0  0
    1.4513    2.3946   -9.0817 C   0  0  0  0  0  0  0  0  0  0  0  0
    1.0563    1.2343   -9.4906 N   0  0  0  0  0  0  0  0  0  0  0  0
    0.4675    1.1264  -10.7355 C   0  0  0  0  0  0  0  0  0  0  0  0
    0.0890    0.0194  -11.0954 O   0  0  0  0  0  0  0  0  0  0  0  0
    0.2814    2.1994  -11.5859 N   0  0  0  0  0  0  0  0  0  0  0  0
    0.6762    3.3659  -11.2073 C   0  0  0  0  0  0  0  0  0  0  0  0
    1.3032    3.6116   -9.9094 C   0  0  0  0  0  0  0  0  0  0  0  0
    1.7200    4.8025   -9.4344 C   0  0  0  0  0  0  0  0  0  0  0  0
    2.2692    4.8684   -8.1624 N   0  0  0  0  0  0  0  0  0  0  0  0
    1.6266    6.0869  -10.1643 C   0  0  0  0  0  0  0  0  0  0  0  0
    2.5897    7.1382   -9.9692 O   0  0  0  0  0  0  0  0  0  0  0  0
    2.5365    6.4264  -11.2206 O   0  0  0  0  0  0  0  0  0  0  0  0
    3.6080    3.3810   -3.8846 C   0  0  0  0  0  0  0  0  0  0  0  0
    4.9503    3.3597   -3.7784 N   0  0  0  0  0  0  0  0  0  0  0  0
    5.4471    3.8040   -2.6225 C   0  0  0  0  0  0  0  0  0  0  0  0
    6.7811    3.8120   -2.4949 F   0  0  0  0  0  0  0  0  0  0  0  0
    4.7355    4.2465   -1.5795 N   0  0  0  0  0  0  0  0  0  0  0  0
    3.3996    4.2713   -1.7007 C   0  0  0  0  0  0  0  0  0  0  0  0
    2.7524    3.8486   -2.8702 C   0  0  0  0  0  0  0  0  0  0  0  0
    1.3390    3.9295   -2.9527 C   0  0  0  0  0  0  0  0  0  0  0  0
    0.5879    4.4122   -1.8766 C   0  0  0  0  0  0  0  0  0  0  0  0
   -0.8742    4.4808   -1.9698 C   0  0  0  0  0  0  0  0  0  0  0  0
   -1.4707    4.2083   -2.9995 O   0  0  0  0  0  0  0  0  0  0  0  0
   -1.6120    4.9318   -0.7336 C   0  0  0  0  0  0  0  0  0  0  0  0
   -2.7973    4.6757   -0.5794 O   0  0  0  0  0  0  0  0  0  0  0  0
   -0.7826    5.7692    0.2030 C   0  0  1  0  0  0  0  0  0  0  0  0
    0.5607    5.3128    0.3861 O   0  0  0  0  0  0  0  0  0  0  0  0
    1.2188    4.8264   -0.7140 C   0  0  0  0  0  0  0  0  0  0  0  0
    2.6206    4.7202   -0.6124 C   0  0  0  0  0  0  0  0  0  0  0  0
    3.2695    5.2803    0.5244 N   0  0  0  0  0  0  0  0  0  0  0  0
   -0.7935    7.2132   -0.2054 C   0  0  1  0  0  0  0  0  0  0  0  0
   -0.2815    7.5304   -1.5174 O   0  0  0  0  0  0  0  0  0  0  0  0
   -1.9537    7.9656    0.1525 O   0  0  0  0  0  0  0  0  0  0  0  0
   -0.8135    8.2618    0.8095 C   0  0  0  0  0  0  0  0  0  0  0  0
   -0.5849    8.2526    1.9976 O   0  0  0  0  0  0  0  0  0  0  0  0
    3.2598   -1.6707   -3.9690 C   0  0  0  0  0  0  0  0  0  0  0  0
    2.8228   -1.4931   -2.8417 O   0  0  0  0  0  0  0  0  0  0  0  0
    3.8095   -3.0117   -4.3938 C   0  0  0  0  0  0  0  0  0  0  0  0
    3.6938   -3.9888   -3.6714 O   0  0  0  0  0  0  0  0  0  0  0  0
    4.5093   -3.1272   -5.7301 C   0  0  0  0  0  0  0  0  0  0  0  0
    4.6457   -4.1981   -6.2958 O   0  0  0  0  0  0  0  0  0  0  0  0
  1  2  1  0  0  0  0
  2  3  2  0  0  0  0
  3  4  1  0  0  0  0
  3 52  1  0  0  0  0
  4  5  1  0  0  0  0
  5  6  1  1  0  0  0
  5 48  1  0  0  0  0
  6  7  1  0  0  0  0
  7  8  2  0  0  0  0
  7 12  1  0  0  0  0
  8  9  1  0  0  0  0
  8 25  1  0  0  0  0
  9 10  1  0  0  0  0
 10 11  2  0  0  0  0
 10 21  1  0  0  0  0
 11 12  1  0  0  0  0
 11 13  1  0  0  0  0
 13 14  2  0  0  0  0
 13 19  1  0  0  0  0
 14 15  1  0  0  0  0
 15 16  2  0  0  0  0
 15 17  1  0  0  0  0
 17 18  2  0  0  0  0
 18 19  1  0  0  0  0
 19 20  2  0  0  0  0
 20 21  1  0  0  0  0
 20 22  1  0  0  0  0
 22 23  1  0  0  0  0
 22 24  1  0  0  0  0
 23 24  1  0  0  0  0
 25 26  2  0  0  0  0
 25 31  1  0  0  0  0
 26 27  1  0  0  0  0
 27 28  1  0  0  0  0
 27 29  2  0  0  0  0
 29 30  1  0  0  0  0
 30 31  2  0  0  0  0
 30 41  1  0  0  0  0
 31 32  1  0  0  0  0
 32 33  2  0  0  0  0
 33 34  1  0  0  0  0
 33 40  1  0  0  0  0
 34 35  2  0  0  0  0
 34 36  1  0  0  0  0
 36 37  2  0  0  0  0
 38 36  1  6  0  0  0
 38 39  1  0  0  0  0
 38 43  1  0  0  0  0
 39 40  1  0  0  0  0
 40 41  2  0  0  0  0
 41 42  1  0  0  0  0
 43 44  1  6  0  0  0
 43 45  1  0  0  0  0
 43 46  1  0  0  0  0
 45 46  1  0  0  0  0
 46 47  2  0  0  0  0
 48 49  2  0  0  0  0
 48 50  1  0  0  0  0
 50 51  2  0  0  0  0
 50 52  1  0  0  0  0
 52 53  2  0  0  0  0
M  END
$$$$