
 OpenBabel11242000303D

 53 62  0  0  1  0  0  0  0  0999 V2000
    5.2732   -0.9032  -20.6160 O   0  0  0  0  0  0  0  0  0  0  0  0
    4.3444   -1.9110  -20.6563 C   0  0  0  0  0  0  0  0  0  0  0  0
    3.5555   -2.2515  -19.6304 C   0  0  0  0  0  0  0  0  0  0  0  0
    3.5843   -1.5224  -18.4429 O   0  0  0  0  0  0  0  0  0  0  0  0
    2.3983   -1.6841  -17.6594 C   0  0  2  0  0  0  0  0  0  0  0  0
    2.4105   -0.8762  -16.4692 O   0  0  0  0  0  0  0  0  0  0  0  0
    2.3826    0.5044  -16.5846 C   0  0  0  0  0  0  0  0  0  0  0  0
    2.4763    1.2946  -15.4874 C   0  0  0  0  0  0  0  0  0  0  0  0
    2.2151    2.6702  -15.5647 O   0  0  0  0  0  0  0  0  0  0  0  0
    1.6617    3.2023  -16.7217 C   0  0  0  0  0  0  0  0  0  0  0  0
    1.6406    2.5174  -17.8749 C   0  0  0  0  0  0  0  0  0  0  0  0
    2.1430    1.1178  -17.9526 C   0  0  0  0  0  0  0  0  0  0  0  0
    1.1197    3.1543  -19.1425 C   0  0  3  0  0  0  0  0  0  0  0  0
    0.0636    2.3087  -19.6870 N   0  0  0  0  0  0  0  0  0  0  0  0
   -0.5142    2.7487  -20.8336 C   0  0  0  0  0  0  0  0  0  0  0  0
   -0.7822    1.9893  -21.8282 N   0  0  0  0  0  0  0  0  0  0  0  0
   -0.8614    4.0533  -20.8266 N   0  0  0  0  0  0  0  0  0  0  0  0
   -0.0402    5.0744  -20.2164 C   0  0  0  0  0  0  0  0  0  0  0  0
    0.5248    4.5224  -18.9423 C   0  0  0  0  0  0  0  0  0  0  0  0
    0.5172    5.1171  -17.7277 C   0  0  0  0  0  0  0  0  0  0  0  0
    1.1092    4.4535  -16.6517 N   0  0  0  0  0  0  0  0  0  0  0  0
   -0.0870    6.4333  -17.4498 C   0  0  3  0  0  0  0  0  0  0  0  0
    0.7420    7.5817  -17.4670 N   0  0  0  0  0  0  0  0  0  0  0  0
    0.4040    7.1808  -16.3384 N   0  0  0  0  0  0  0  0  0  0  0  0
    2.7159    0.8427  -14.0775 C   0  0  0  0  0  0  0  0  0  0  0  0
    2.0369    1.5542  -13.0769 C   0  0  0  0  0  0  0  0  0  0  0  0
    2.1201    1.1937  -11.7884 N   0  3  0  0  0  0  0  0  0  0  0  0
    1.4495    1.9035  -10.8605 F   0  0  0  0  0  0  0  0  0  0  0  0
    2.8142    0.1397  -11.4169 N   0  3  0  0  0  0  0  0  0  0  0  0
    3.4960   -0.6031  -12.2975 C   0  0  0  0  0  0  0  0  0  0  0  0
    3.5313   -0.2533  -13.6609 C   0  0  0  0  0  0  0  0  0  0  0  0
    4.3593   -1.0780  -14.4663 C   0  0  0  0  0  0  0  0  0  0  0  0
    4.8914   -2.2883  -13.9806 C   0  0  0  0  0  0  0  0  0  0  0  0
    4.7723   -2.6244  -12.6402 C   0  0  0  0  0  0  0  0  0  0  0  0
    4.1387   -1.7427  -11.7697 C   0  0  0  0  0  0  0  0  0  0  0  0
    3.9178   -2.0358  -10.3930 N   0  0  0  0  0  0  0  0  0  0  0  0
    5.2479   -3.8135  -12.1574 O   0  0  0  0  0  0  0  0  0  0  0  0
    4.9959   -4.9143  -13.0797 C   0  0  1  0  0  0  0  0  0  0  0  0
    5.4797   -4.7324  -14.4646 C   0  0  0  0  0  0  0  0  0  0  0  0
    5.7305   -5.6404  -15.2329 O   0  0  0  0  0  0  0  0  0  0  0  0
    5.4512   -3.2812  -14.9140 C   0  0  0  0  0  0  0  0  0  0  0  0
    5.7656   -2.9477  -16.0443 O   0  0  0  0  0  0  0  0  0  0  0  0
    5.0798   -6.2054  -12.5419 O   0  0  0  0  0  0  0  0  0  0  0  0
    3.7440   -5.7286  -12.8910 C   0  0  1  0  0  0  0  0  0  0  0  0
    2.9747   -5.0457  -11.8223 O   0  0  0  0  0  0  0  0  0  0  0  0
    2.8304   -6.3434  -11.9716 C   0  0  0  0  0  0  0  0  0  0  0  0
    1.8023   -6.9938  -12.0987 O   0  0  0  0  0  0  0  0  0  0  0  0
    2.3399   -3.1364  -17.2391 C   0  0  0  0  0  0  0  0  0  0  0  0
    2.4061   -3.5550  -16.0901 O   0  0  0  0  0  0  0  0  0  0  0  0
    2.2040   -4.0214  -18.4558 C   0  0  0  0  0  0  0  0  0  0  0  0
    1.6759   -5.1127  -18.3565 O   0  0  0  0  0  0  0  0  0  0  0  0
    2.6697   -3.4475  -19.7905 C   0  0  0  0  0  0  0  0  0  0  0  0
    2.2848   -3.8837  -20.8583 O   0  0  0  0  0  0  0  0  0  0  0  0
  1  2  1  0  0  0  0
  2  3  2  0  0  0  0
  3  4  1  0  0  0  0
  3 52  1  0  0  0  0
  4  5  1  0  0  0  0
  5  6  1  1  0  0  0
  5 48  1  0  0  0  0
  6  7  1  0  0  0  0
  7  8  2  0  0  0  0
  7 12  1  0  0  0  0
  8  9  1  0  0  0  0
  8 25  1  0  0  0  0
  9 10  1  0  0  0  0
 10 11  2  0  0  0  0
 10 21  1  0  0  0  0
 11 12  1  0  0  0  0
 11 13  1  0  0  0  0
 13 14  1  0  0  0  0
 13 19  1  0  0  0  0
 14 15  1  0  0  0  0
 15 16  2  0  0  0  0
 15 17  1  0  0  0  0
 17 18  1  0  0  0  0
 18 19  1  0  0  0  0
 19 20  2  0  0  0  0
 20 21  1  0  0  0  0
 20 22  1  0  0  0  0
 22 23  1  0  0  0  0
 22 24  1  0  0  0  0
 23 24  2  0  0  0  0
 25 26  2  0  0  0  0
 25 31  1  0  0  0  0
 26 27  1  0  0  0  0
 27 28  1  0  0  0  0
 27 29  2  0  0  0  0
 29 30  1  0  0  0  0
 30 31  2  0  0  0  0
 30 35  1  0  0  0  0
 31 32  1  0  0  0  0
 32 33  2  0  0  0  0
 33 34  1  0  0  0  0
 33 41  1  0  0  0  0
 34 35  2  0  0  0  0
 34 37  1  0  0  0  0
 35 36  1  0  0  0  0
 38 37  1  1  0  0  0
 38 39  1  0  0  0  0
 38 43  1  0  0  0  0
 38 44  1  0  0  0  0
 39 40  2  0  0  0  0
 39 41  1  0  0  0  0
 41 42  2  0  0  0  0
 44 43  1  1  0  0  0
 44 45  1  0  0  0  0
 44 46  1  0  0  0  0
 45 46  1  0  0  0  0
 46 47  2  0  0  0  0
 48 49  2  0  0  0  0
 48 50  1  0  0  0  0
 50 51  2  0  0  0  0
 50 52  1  0  0  0  0
 52 53  2  0  0  0  0
M  CHG  2  27   1  29   1
M  END
$$$$