
 OpenBabel10112019453D

 52 60  0  0  1  0  0  0  0  0999 V2000
    5.0150   -4.2659    6.2983 O   0  0  0  0  0  0  0  0  0  0  0  0
    5.8110   -3.7221    5.2583 C   0  0  0  0  0  0  0  0  0  0  0  0
    5.1920   -4.1271    3.9619 C   0  0  0  0  0  0  0  0  0  0  0  0
    5.1934   -3.3879    2.8409 C   0  0  0  0  0  0  0  0  0  0  0  0
    5.7942   -2.1446    2.8257 O   0  0  0  0  0  0  0  0  0  0  0  0
    6.2431   -1.6637    1.5512 C   0  0  2  0  0  0  0  0  0  0  0  0
    6.9275   -0.4098    1.6856 O   0  0  0  0  0  0  0  0  0  0  0  0
    8.0909   -0.3864    2.4563 C   0  0  0  0  0  0  0  0  0  0  0  0
    8.8161    0.7479    2.6084 C   0  0  0  0  0  0  0  0  0  0  0  0
    9.9851    0.8067    3.3751 O   0  0  0  0  0  0  0  0  0  0  0  0
   10.5230   -0.3692    3.8880 C   0  0  0  0  0  0  0  0  0  0  0  0
    9.8876   -1.5407    3.7586 C   0  0  0  0  0  0  0  0  0  0  0  0
    8.5579   -1.6620    3.1202 C   0  0  0  0  0  0  0  0  0  0  0  0
   10.5660   -2.7813    4.2195 C   0  0  0  0  0  0  0  0  0  0  0  0
    9.9983   -3.9334    4.0714 N   0  0  0  0  0  0  0  0  0  0  0  0
   10.6823   -5.0729    4.4469 C   0  0  0  0  0  0  0  0  0  0  0  0
   10.1440   -6.1545    4.2506 O   0  0  0  0  0  0  0  0  0  0  0  0
   11.9379   -5.0505    5.0219 N   0  0  0  0  0  0  0  0  0  0  0  0
   12.5209   -3.9137    5.1908 C   0  0  0  0  0  0  0  0  0  0  0  0
   11.9108   -2.6382    4.8128 C   0  0  0  0  0  0  0  0  0  0  0  0
   12.4532   -1.4106    4.9481 C   0  0  0  0  0  0  0  0  0  0  0  0
   11.7414   -0.2970    4.5143 N   0  0  0  0  0  0  0  0  0  0  0  0
   13.7924   -1.1386    5.5191 C   0  0  0  0  0  0  0  0  0  0  0  0
   14.9670   -1.1082    4.6950 O   0  0  0  0  0  0  0  0  0  0  0  0
   14.4738    0.1080    5.2893 O   0  0  0  0  0  0  0  0  0  0  0  0
    8.4931    2.0185    1.9207 C   0  0  0  0  0  0  0  0  0  0  0  0
    9.0789    2.1360    0.7064 N   0  0  0  0  0  0  0  0  0  0  0  0
    8.7861    3.2412    0.0147 C   0  0  0  0  0  0  0  0  0  0  0  0
    7.9735    4.2272    0.4119 N   0  0  0  0  0  0  0  0  0  0  0  0
    7.4122    4.1058    1.6160 C   0  0  0  0  0  0  0  0  0  0  0  0
    7.6529    3.0113    2.4638 C   0  0  0  0  0  0  0  0  0  0  0  0
    7.0570    3.0036    3.7516 C   0  0  0  0  0  0  0  0  0  0  0  0
    6.2141    4.0506    4.1507 C   0  0  0  0  0  0  0  0  0  0  0  0
    5.9281    5.0953    3.2834 C   0  0  0  0  0  0  0  0  0  0  0  0
    6.5493    5.1157    2.0336 C   0  0  0  0  0  0  0  0  0  0  0  0
    5.0813    6.1364    3.5486 O   0  0  0  0  0  0  0  0  0  0  0  0
    4.2879    6.0642    4.7406 C   0  0  2  0  0  0  0  0  0  0  0  0
    4.9426    5.3473    5.8959 C   0  0  0  0  0  0  0  0  0  0  0  0
    4.9341    5.7356    7.0552 O   0  0  0  0  0  0  0  0  0  0  0  0
    5.6483    4.0729    5.5032 C   0  0  0  0  0  0  0  0  0  0  0  0
    5.7701    3.1416    6.2814 O   0  0  0  0  0  0  0  0  0  0  0  0
    2.9353    5.4935    4.4470 C   0  0  1  0  0  0  0  0  0  0  0  0
    2.9000    4.1500    3.9095 O   0  0  0  0  0  0  0  0  0  0  0  0
    1.9457    5.7869    5.4371 O   0  0  0  0  0  0  0  0  0  0  0  0
    1.7393    6.3038    4.2091 C   0  0  0  0  0  0  0  0  0  0  0  0
    0.8158    6.1350    3.4492 O   0  0  0  0  0  0  0  0  0  0  0  0
    5.0100   -1.5512    0.6788 C   0  0  0  0  0  0  0  0  0  0  0  0
    4.5521   -0.5417    0.1694 O   0  0  0  0  0  0  0  0  0  0  0  0
    4.3464   -2.8948    0.5123 C   0  0  0  0  0  0  0  0  0  0  0  0
    3.7678   -3.1692   -0.5260 O   0  0  0  0  0  0  0  0  0  0  0  0
    4.4823   -3.9118    1.6327 C   0  0  0  0  0  0  0  0  0  0  0  0
    4.0606   -5.0500    1.5199 O   0  0  0  0  0  0  0  0  0  0  0  0
  1  2  1  0  0  0  0
  2  3  1  0  0  0  0
  3  4  2  0  0  0  0
  4  5  1  0  0  0  0
  4 51  1  0  0  0  0
  5  6  1  0  0  0  0
  6  7  1  1  0  0  0
  6 47  1  0  0  0  0
  7  8  1  0  0  0  0
  8  9  2  0  0  0  0
  8 13  1  0  0  0  0
  9 10  1  0  0  0  0
  9 26  1  0  0  0  0
 10 11  1  0  0  0  0
 11 12  2  0  0  0  0
 11 22  1  0  0  0  0
 12 13  1  0  0  0  0
 12 14  1  0  0  0  0
 14 15  2  0  0  0  0
 14 20  1  0  0  0  0
 15 16  1  0  0  0  0
 16 17  2  0  0  0  0
 16 18  1  0  0  0  0
 18 19  2  0  0  0  0
 19 20  1  0  0  0  0
 20 21  2  0  0  0  0
 21 22  1  0  0  0  0
 21 23  1  0  0  0  0
 23 24  1  0  0  0  0
 23 25  1  0  0  0  0
 24 25  1  0  0  0  0
 26 27  2  0  0  0  0
 26 31  1  0  0  0  0
 27 28  1  0  0  0  0
 28 29  2  0  0  0  0
 29 30  1  0  0  0  0
 30 31  2  0  0  0  0
 30 35  1  0  0  0  0
 31 32  1  0  0  0  0
 32 33  2  0  0  0  0
 33 34  1  0  0  0  0
 33 40  1  0  0  0  0
 34 35  2  0  0  0  0
 34 36  1  0  0  0  0
 37 36  1  6  0  0  0
 37 38  1  0  0  0  0
 37 42  1  0  0  0  0
 38 39  2  0  0  0  0
 38 40  1  0  0  0  0
 40 41  2  0  0  0  0
 42 43  1  6  0  0  0
 42 44  1  0  0  0  0
 42 45  1  0  0  0  0
 44 45  1  0  0  0  0
 45 46  2  0  0  0  0
 47 48  2  0  0  0  0
 47 49  1  0  0  0  0
 49 50  2  0  0  0  0
 49 51  1  0  0  0  0
 51 52  2  0  0  0  0
M  END
$$$$