
 OpenBabel09252006333D

 52 60  0  0  1  0  0  0  0  0999 V2000
    0.7589   -3.1050    4.5527 O   0  0  0  0  0  0  0  0  0  0  0  0
    1.4134   -3.0987    3.3480 C   0  0  0  0  0  0  0  0  0  0  0  0
    1.7747   -1.9609    2.7443 C   0  0  0  0  0  0  0  0  0  0  0  0
    1.4588   -0.7391    3.3113 O   0  0  0  0  0  0  0  0  0  0  0  0
    2.4901    0.2371    3.2097 C   0  0  2  0  0  0  0  0  0  0  0  0
    2.1015    1.4348    3.8939 O   0  0  0  0  0  0  0  0  0  0  0  0
    2.4085    1.5360    5.2460 C   0  0  0  0  0  0  0  0  0  0  0  0
    2.6580    2.7406    5.8081 C   0  0  0  0  0  0  0  0  0  0  0  0
    2.9737    2.9141    7.1521 O   0  0  0  0  0  0  0  0  0  0  0  0
    3.1566    1.7948    7.9481 C   0  0  0  0  0  0  0  0  0  0  0  0
    2.8720    0.5634    7.4967 C   0  0  0  0  0  0  0  0  0  0  0  0
    2.3881    0.2949    6.1100 C   0  0  0  0  0  0  0  0  0  0  0  0
    3.1808   -0.5917    8.3816 C   0  0  0  0  0  0  0  0  0  0  0  0
    2.8877   -1.7960    8.0162 N   0  0  0  0  0  0  0  0  0  0  0  0
    3.2302   -2.8494    8.8389 C   0  0  0  0  0  0  0  0  0  0  0  0
    2.8558   -3.9713    8.5216 O   0  0  0  0  0  0  0  0  0  0  0  0
    3.9964   -2.7037    9.9798 N   0  0  0  0  0  0  0  0  0  0  0  0
    4.2960   -1.5135   10.3727 C   0  0  0  0  0  0  0  0  0  0  0  0
    3.8859   -0.3093    9.6507 C   0  0  0  0  0  0  0  0  0  0  0  0
    4.1321    0.9653   10.0140 C   0  0  0  0  0  0  0  0  0  0  0  0
    3.7025    1.9968    9.1910 N   0  0  0  0  0  0  0  0  0  0  0  0
    4.8709    1.3662   11.2324 C   0  0  0  0  0  0  0  0  0  0  0  0
    4.5866    2.5940   11.9244 O   0  0  0  0  0  0  0  0  0  0  0  0
    4.2683    1.3273   12.5338 O   0  0  0  0  0  0  0  0  0  0  0  0
    2.6498    3.9952    5.0393 C   0  0  0  0  0  0  0  0  0  0  0  0
    3.8771    4.2799    4.5369 N   0  0  0  0  0  0  0  0  0  0  0  0
    3.9568    5.3631    3.7707 C   0  0  0  0  0  0  0  0  0  0  0  0
    2.9437    6.1782    3.4728 N   0  0  0  0  0  0  0  0  0  0  0  0
    1.7470    5.8853    3.9857 C   0  0  0  0  0  0  0  0  0  0  0  0
    1.4874    4.7811    4.8185 C   0  0  0  0  0  0  0  0  0  0  0  0
    0.1396    4.5973    5.3191 C   0  0  0  0  0  0  0  0  0  0  0  0
   -0.1378    3.6579    6.3411 N   0  0  0  0  0  0  0  0  0  0  0  0
   -0.8692    5.5239    4.9538 C   0  0  0  0  0  0  0  0  0  0  0  0
   -0.5807    6.5802    4.1010 C   0  0  0  0  0  0  0  0  0  0  0  0
    0.7233    6.7544    3.6494 C   0  0  0  0  0  0  0  0  0  0  0  0
   -1.4756    7.5069    3.6479 O   0  0  0  0  0  0  0  0  0  0  0  0
   -2.8667    7.2186    3.8124 C   0  0  2  0  0  0  0  0  0  0  0  0
   -3.2057    6.5024    5.0905 C   0  0  0  0  0  0  0  0  0  0  0  0
   -4.1538    6.7672    5.8154 O   0  0  0  0  0  0  0  0  0  0  0  0
   -2.2619    5.3804    5.4265 C   0  0  0  0  0  0  0  0  0  0  0  0
   -2.6626    4.4029    6.0424 O   0  0  0  0  0  0  0  0  0  0  0  0
   -3.3816    6.4919    2.6050 C   0  0  1  0  0  0  0  0  0  0  0  0
   -2.7591    5.2291    2.2802 O   0  0  0  0  0  0  0  0  0  0  0  0
   -4.8000    6.5421    2.4006 O   0  0  0  0  0  0  0  0  0  0  0  0
   -4.0397    7.2178    1.5327 C   0  0  0  0  0  0  0  0  0  0  0  0
   -4.0164    8.3923    1.2194 O   0  0  0  0  0  0  0  0  0  0  0  0
    2.7462    0.5447    1.7427 C   0  0  0  0  0  0  0  0  0  0  0  0
    2.7952    1.6506    1.2249 O   0  0  0  0  0  0  0  0  0  0  0  0
    3.0001   -0.7036    0.9332 C   0  0  0  0  0  0  0  0  0  0  0  0
    3.6591   -0.6416   -0.0939 O   0  0  0  0  0  0  0  0  0  0  0  0
    2.4925   -2.0389    1.4410 C   0  0  0  0  0  0  0  0  0  0  0  0
    2.6932   -3.0763    0.8307 O   0  0  0  0  0  0  0  0  0  0  0  0
  1  2  1  0  0  0  0
  2  3  2  0  0  0  0
  3  4  1  0  0  0  0
  3 51  1  0  0  0  0
  4  5  1  0  0  0  0
  5  6  1  1  0  0  0
  5 47  1  0  0  0  0
  6  7  1  0  0  0  0
  7  8  2  0  0  0  0
  7 12  1  0  0  0  0
  8  9  1  0  0  0  0
  8 25  1  0  0  0  0
  9 10  1  0  0  0  0
 10 11  2  0  0  0  0
 10 21  1  0  0  0  0
 11 12  1  0  0  0  0
 11 13  1  0  0  0  0
 13 14  2  0  0  0  0
 13 19  1  0  0  0  0
 14 15  1  0  0  0  0
 15 16  2  0  0  0  0
 15 17  1  0  0  0  0
 17 18  2  0  0  0  0
 18 19  1  0  0  0  0
 19 20  2  0  0  0  0
 20 21  1  0  0  0  0
 20 22  1  0  0  0  0
 22 23  1  0  0  0  0
 22 24  1  0  0  0  0
 23 24  1  0  0  0  0
 25 26  2  0  0  0  0
 25 30  1  0  0  0  0
 26 27  1  0  0  0  0
 27 28  2  0  0  0  0
 28 29  1  0  0  0  0
 29 30  2  0  0  0  0
 29 35  1  0  0  0  0
 30 31  1  0  0  0  0
 31 32  1  0  0  0  0
 31 33  2  0  0  0  0
 33 34  1  0  0  0  0
 33 40  1  0  0  0  0
 34 35  2  0  0  0  0
 34 36  1  0  0  0  0
 37 36  1  6  0  0  0
 37 38  1  0  0  0  0
 37 42  1  0  0  0  0
 38 39  2  0  0  0  0
 38 40  1  0  0  0  0
 40 41  2  0  0  0  0
 42 43  1  6  0  0  0
 42 44  1  0  0  0  0
 42 45  1  0  0  0  0
 44 45  1  0  0  0  0
 45 46  2  0  0  0  0
 47 48  2  0  0  0  0
 47 49  1  0  0  0  0
 49 50  2  0  0  0  0
 49 51  1  0  0  0  0
 51 52  2  0  0  0  0
M  END
$$$$