
 OpenBabel11232003023D

 54 62  0  0  1  0  0  0  0  0999 V2000
   -0.8675    1.3317   -6.4419 O   0  0  0  0  0  0  0  0  0  0  0  0
   -0.4691    1.9330   -7.6078 C   0  0  0  0  0  0  0  0  0  0  0  0
    0.7632    2.4258   -7.7731 C   0  0  0  0  0  0  0  0  0  0  0  0
    1.6848    2.3644   -6.7418 O   0  0  0  0  0  0  0  0  0  0  0  0
    3.0491    2.5127   -7.0820 C   0  0  2  0  0  0  0  0  0  0  0  0
    3.8929    2.7199   -5.9000 O   0  0  0  0  0  0  0  0  0  0  0  0
    3.7133    3.8602   -5.1162 C   0  0  0  0  0  0  0  0  0  0  0  0
    4.7433    4.4444   -4.4483 C   0  0  0  0  0  0  0  0  0  0  0  0
    4.5465    5.5405   -3.5976 O   0  0  0  0  0  0  0  0  0  0  0  0
    3.2017    5.7557   -3.1179 C   0  0  3  0  0  0  0  0  0  0  0  0
    2.2046    5.7095   -4.2511 C   0  0  3  0  0  0  0  0  0  0  0  0
    2.3066    4.3812   -4.9791 C   0  0  0  0  0  0  0  0  0  0  0  0
    0.8086    5.9048   -3.7170 C   0  0  0  0  0  0  0  0  0  0  0  0
   -0.1925    5.5959   -4.4670 N   0  0  0  0  0  0  0  0  0  0  0  0
   -1.4602    5.7578   -3.9455 C   0  0  0  0  0  0  0  0  0  0  0  0
   -2.3457    4.9837   -4.2675 O   0  0  0  0  0  0  0  0  0  0  0  0
   -1.7029    6.7732   -3.0517 N   0  0  0  0  0  0  0  0  0  0  0  0
   -0.7188    7.1011   -2.3050 C   0  0  0  0  0  0  0  0  0  0  0  0
    0.6358    6.4558   -2.3288 C   0  0  3  0  0  0  0  0  0  0  0  0
    1.7924    7.4076   -1.9901 C   0  0  3  0  0  0  0  0  0  0  0  0
    3.0914    7.0006   -2.4644 O   0  3  0  0  0  0  0  0  0  0  0  0
    1.8998    7.7139   -0.5104 C   0  0  3  0  0  0  0  0  0  0  0  0
    3.0445    8.4404   -0.0784 N   0  0  0  0  0  0  0  0  0  0  0  0
    3.0320    7.2277    0.1993 N   0  0  0  0  0  0  0  0  0  0  0  0
   -0.8949    8.0700   -1.4094 O   0  0  0  0  0  0  0  0  0  0  0  0
    6.1883    4.0080   -4.5760 C   0  0  0  0  0  0  0  0  0  0  0  0
    6.6501    3.5425   -5.8079 C   0  0  0  0  0  0  0  0  0  0  0  0
    7.9121    3.1490   -5.9949 N   0  3  0  0  0  0  0  0  0  0  0  0
    8.2800    2.6806   -7.2035 F   0  0  0  0  0  0  0  0  0  0  0  0
    8.8184    3.2086   -5.0467 N   0  0  0  0  0  0  0  0  0  0  0  0
    8.4838    3.6830   -3.8490 C   0  0  0  0  0  0  0  0  0  0  0  0
    7.1648    4.0893   -3.5418 C   0  0  0  0  0  0  0  0  0  0  0  0
    6.9329    4.5515   -2.2237 C   0  0  0  0  0  0  0  0  0  0  0  0
    7.9734    4.6954   -1.2908 C   0  0  0  0  0  0  0  0  0  0  0  0
    7.6928    5.2793    0.0230 C   0  0  0  0  0  0  0  0  0  0  0  0
    6.5580    5.6447    0.2941 O   0  0  0  0  0  0  0  0  0  0  0  0
    8.8665    5.4319    0.9687 C   0  0  0  0  0  0  0  0  0  0  0  0
    8.6795    5.6186    2.1600 O   0  0  0  0  0  0  0  0  0  0  0  0
   10.2209    5.3938    0.2900 C   0  0  1  0  0  0  0  0  0  0  0  0
   10.3276    4.4324   -0.7714 O   0  0  0  0  0  0  0  0  0  0  0  0
    9.2609    4.3237   -1.6147 C   0  0  0  0  0  0  0  0  0  0  0  0
    9.4862    3.7917   -2.8823 C   0  0  0  0  0  0  0  0  0  0  0  0
   10.7313    3.4058   -3.2051 F   0  0  0  0  0  0  0  0  0  0  0  0
   10.6009    6.7492   -0.2155 C   0  0  1  0  0  0  0  0  0  0  0  0
    9.6877    7.3696   -1.1632 O   0  0  0  0  0  0  0  0  0  0  0  0
   11.1912    7.6187    0.7396 O   0  0  0  0  0  0  0  0  0  0  0  0
   11.9879    7.2320   -0.2830 C   0  0  0  0  0  0  0  0  0  0  0  0
   12.4970    7.8903   -1.1575 O   0  0  0  0  0  0  0  0  0  0  0  0
    3.4206    3.5705   -8.1171 C   0  0  0  0  0  0  0  0  0  0  0  0
    4.5373    4.0632   -8.2335 O   0  0  0  0  0  0  0  0  0  0  0  0
    2.2709    4.0089   -8.9727 C   0  0  0  0  0  0  0  0  0  0  0  0
    2.3031    5.1114   -9.4933 O   0  0  0  0  0  0  0  0  0  0  0  0
    1.0500    3.1322   -9.0500 C   0  0  0  0  0  0  0  0  0  0  0  0
    0.4001    3.0356  -10.0734 O   0  0  0  0  0  0  0  0  0  0  0  0
  1  2  1  0  0  0  0
  2  3  2  0  0  0  0
  3  4  1  0  0  0  0
  3 53  1  0  0  0  0
  4  5  1  0  0  0  0
  5  6  1  1  0  0  0
  5 49  1  0  0  0  0
  6  7  1  0  0  0  0
  7  8  2  0  0  0  0
  7 12  1  0  0  0  0
  8  9  1  0  0  0  0
  8 26  1  0  0  0  0
  9 10  1  0  0  0  0
 10 11  1  0  0  0  0
 10 21  1  0  0  0  0
 11 12  1  0  0  0  0
 11 13  1  0  0  0  0
 13 14  2  0  0  0  0
 13 19  1  0  0  0  0
 14 15  1  0  0  0  0
 15 16  2  0  0  0  0
 15 17  1  0  0  0  0
 17 18  2  0  0  0  0
 18 19  1  0  0  0  0
 18 25  1  0  0  0  0
 19 20  1  0  0  0  0
 20 21  1  0  0  0  0
 20 22  1  0  0  0  0
 22 23  1  0  0  0  0
 22 24  1  0  0  0  0
 23 24  2  0  0  0  0
 26 27  2  0  0  0  0
 26 32  1  0  0  0  0
 27 28  1  0  0  0  0
 28 29  1  0  0  0  0
 28 30  2  0  0  0  0
 30 31  1  0  0  0  0
 31 32  2  0  0  0  0
 31 42  1  0  0  0  0
 32 33  1  0  0  0  0
 33 34  2  0  0  0  0
 34 35  1  0  0  0  0
 34 41  1  0  0  0  0
 35 36  2  0  0  0  0
 35 37  1  0  0  0  0
 37 38  2  0  0  0  0
 39 37  1  6  0  0  0
 39 40  1  0  0  0  0
 39 44  1  0  0  0  0
 40 41  1  0  0  0  0
 41 42  2  0  0  0  0
 42 43  1  0  0  0  0
 44 45  1  6  0  0  0
 44 46  1  0  0  0  0
 44 47  1  0  0  0  0
 46 47  1  0  0  0  0
 47 48  2  0  0  0  0
 49 50  2  0  0  0  0
 49 51  1  0  0  0  0
 51 52  2  0  0  0  0
 51 53  1  0  0  0  0
 53 54  2  0  0  0  0
M  CHG  2  21   1  28   1
M  END
$$$$