
 OpenBabel11252003003D

 54 63  0  0  1  0  0  0  0  0999 V2000
   12.2355    3.8688   -3.9174 O   0  0  0  0  0  0  0  0  0  0  0  0
   12.7782    3.4860   -2.7160 C   0  0  0  0  0  0  0  0  0  0  0  0
   12.9212    2.2025   -2.3682 C   0  0  0  0  0  0  0  0  0  0  0  0
   12.5021    1.1966   -3.2268 O   0  0  0  0  0  0  0  0  0  0  0  0
   13.1597   -0.0449   -3.0296 C   0  0  2  0  0  0  0  0  0  0  0  0
   12.6159   -1.0559   -3.8977 O   0  0  0  0  0  0  0  0  0  0  0  0
   12.6804   -0.9034   -5.2660 C   0  0  0  0  0  0  0  0  0  0  0  0
   11.7293   -1.4443   -6.0626 C   0  0  0  0  0  0  0  0  0  0  0  0
   11.8238   -1.3522   -7.4579 O   0  0  0  0  0  0  0  0  0  0  0  0
   12.9175   -0.7427   -8.0698 C   0  0  0  0  0  0  0  0  0  0  0  0
   13.9347   -0.2456   -7.3424 C   0  0  0  0  0  0  0  0  0  0  0  0
   13.8997   -0.2230   -5.8413 C   0  0  0  0  0  0  0  0  0  0  0  0
   15.1672    0.3303   -7.9893 C   0  0  3  0  0  0  0  0  0  0  0  0
   16.2602   -0.4953   -7.6252 O   0  0  0  0  0  0  0  0  0  0  0  0
   17.4791   -0.1301   -8.1131 C   0  0  0  0  0  0  0  0  0  0  0  0
   18.5137   -0.5567   -7.6305 O   0  0  0  0  0  0  0  0  0  0  0  0
   17.4455    0.7634   -9.1319 O   0  0  0  0  0  0  0  0  0  0  0  0
   16.3725    0.7479  -10.0668 C   0  0  3  0  0  0  0  0  0  0  0  0
   15.0963    0.2705   -9.4663 C   0  0  0  0  0  0  0  0  0  0  0  0
   14.0177   -0.1910  -10.1383 C   0  0  0  0  0  0  0  0  0  0  0  0
   12.9227   -0.6847   -9.4473 O   0  3  0  0  0  0  0  0  0  0  0  0
   13.9215   -0.2527  -11.6044 C   0  0  0  0  0  0  0  0  0  0  0  0
   12.7914    0.4135  -12.2313 N   0  0  0  0  0  0  0  0  0  0  0  0
   14.1184    0.8941  -12.4563 N   0  0  0  0  0  0  0  0  0  0  0  0
   16.1035    2.0780  -10.4714 O   0  0  0  0  0  0  0  0  0  0  0  0
   10.5210   -2.2055   -5.5570 C   0  0  0  0  0  0  0  0  0  0  0  0
   10.6066   -2.9336   -4.3633 C   0  0  0  0  0  0  0  0  0  0  0  0
    9.5702   -3.6328   -3.8898 N   0  3  0  0  0  0  0  0  0  0  0  0
    9.6992   -4.2766   -2.7128 F   0  0  0  0  0  0  0  0  0  0  0  0
    8.4320   -3.7437   -4.5429 N   0  0  0  0  0  0  0  0  0  0  0  0
    8.2758   -3.1238   -5.7128 C   0  0  0  0  0  0  0  0  0  0  0  0
    9.2857   -2.3030   -6.2603 C   0  0  0  0  0  0  0  0  0  0  0  0
    8.9885   -1.6581   -7.4847 C   0  0  0  0  0  0  0  0  0  0  0  0
    7.8074   -1.9142   -8.1935 C   0  0  0  0  0  0  0  0  0  0  0  0
    6.8426   -2.7392   -7.6747 C   0  0  0  0  0  0  0  0  0  0  0  0
    7.0844   -3.3152   -6.4268 C   0  0  0  0  0  0  0  0  0  0  0  0
    6.1499   -4.1234   -5.9026 F   0  0  0  0  0  0  0  0  0  0  0  0
    5.7063   -3.0812   -8.3440 O   0  0  0  0  0  0  0  0  0  0  0  0
    5.3041   -2.2968   -9.5018 C   0  0  1  0  0  0  0  0  0  0  0  0
    6.2444   -1.3141  -10.0873 C   0  0  0  0  0  0  0  0  0  0  0  0
    5.9273   -0.4605  -10.8992 O   0  0  0  0  0  0  0  0  0  0  0  0
    7.6412   -1.3657   -9.5322 C   0  0  0  0  0  0  0  0  0  0  0  0
    8.6244   -0.9594  -10.1377 O   0  0  0  0  0  0  0  0  0  0  0  0
    4.5256   -2.9944  -10.4445 O   0  0  0  0  0  0  0  0  0  0  0  0
    3.8412   -1.9734   -9.6549 C   0  0  1  0  0  0  0  0  0  0  0  0
    3.1885   -2.3916   -8.3891 O   0  0  0  0  0  0  0  0  0  0  0  0
    2.4837   -2.4140   -9.4956 C   0  0  0  0  0  0  0  0  0  0  0  0
    1.4082   -1.9438   -9.7887 O   0  0  0  0  0  0  0  0  0  0  0  0
   12.8736   -0.5440   -1.6279 C   0  0  0  0  0  0  0  0  0  0  0  0
   12.3292   -1.6072   -1.3581 O   0  0  0  0  0  0  0  0  0  0  0  0
   13.2857    0.4603   -0.5812 C   0  0  0  0  0  0  0  0  0  0  0  0
   13.4434    0.1096    0.5736 O   0  0  0  0  0  0  0  0  0  0  0  0
   13.4981    1.8984   -1.0226 C   0  0  0  0  0  0  0  0  0  0  0  0
   14.1251    2.6974   -0.3524 O   0  0  0  0  0  0  0  0  0  0  0  0
  1  2  1  0  0  0  0
  2  3  2  0  0  0  0
  3  4  1  0  0  0  0
  3 53  1  0  0  0  0
  4  5  1  0  0  0  0
  5  6  1  6  0  0  0
  5 49  1  0  0  0  0
  6  7  1  0  0  0  0
  7  8  2  0  0  0  0
  7 12  1  0  0  0  0
  8  9  1  0  0  0  0
  8 26  1  0  0  0  0
  9 10  1  0  0  0  0
 10 11  2  0  0  0  0
 10 21  1  0  0  0  0
 11 12  1  0  0  0  0
 11 13  1  0  0  0  0
 13 14  1  0  0  0  0
 13 19  1  0  0  0  0
 14 15  1  0  0  0  0
 15 16  2  0  0  0  0
 15 17  1  0  0  0  0
 17 18  1  0  0  0  0
 18 19  1  0  0  0  0
 18 25  1  0  0  0  0
 19 20  2  0  0  0  0
 20 21  1  0  0  0  0
 20 22  1  0  0  0  0
 22 23  1  0  0  0  0
 22 24  1  0  0  0  0
 23 24  1  0  0  0  0
 26 27  2  0  0  0  0
 26 32  1  0  0  0  0
 27 28  1  0  0  0  0
 28 29  1  0  0  0  0
 28 30  2  0  0  0  0
 30 31  1  0  0  0  0
 31 32  2  0  0  0  0
 31 36  1  0  0  0  0
 32 33  1  0  0  0  0
 33 34  2  0  0  0  0
 34 35  1  0  0  0  0
 34 42  1  0  0  0  0
 35 36  2  0  0  0  0
 35 38  1  0  0  0  0
 36 37  1  0  0  0  0
 39 38  1  1  0  0  0
 39 40  1  0  0  0  0
 39 44  1  0  0  0  0
 39 45  1  0  0  0  0
 40 41  2  0  0  0  0
 40 42  1  0  0  0  0
 42 43  2  0  0  0  0
 45 44  1  1  0  0  0
 45 46  1  0  0  0  0
 45 47  1  0  0  0  0
 46 47  1  0  0  0  0
 47 48  2  0  0  0  0
 49 50  2  0  0  0  0
 49 51  1  0  0  0  0
 51 52  2  0  0  0  0
 51 53  1  0  0  0  0
 53 54  2  0  0  0  0
M  CHG  2  21   1  28   1
M  END
$$$$