
 OpenBabel10302017233D

 52 60  0  0  1  0  0  0  0  0999 V2000
   -1.4199    3.5107   -3.3703 O   0  0  0  0  0  0  0  0  0  0  0  0
   -0.9866    2.8763   -2.2346 C   0  0  0  0  0  0  0  0  0  0  0  0
   -0.0291    1.9429   -2.2587 C   0  0  0  0  0  0  0  0  0  0  0  0
    0.5418    1.5533   -3.4589 O   0  0  0  0  0  0  0  0  0  0  0  0
    1.9266    1.2287   -3.3485 C   0  0  2  0  0  0  0  0  0  0  0  0
    2.4930    0.9373   -4.6299 O   0  0  0  0  0  0  0  0  0  0  0  0
    2.4237    1.9314   -5.5968 C   0  0  0  0  0  0  0  0  0  0  0  0
    2.3499    1.5990   -6.9009 C   0  0  0  0  0  0  0  0  0  0  0  0
    2.3037    2.5217   -7.9316 O   0  0  0  0  0  0  0  0  0  0  0  0
    2.3670    3.8694   -7.6239 C   0  0  0  0  0  0  0  0  0  0  0  0
    2.4800    4.3166   -6.3601 C   0  0  0  0  0  0  0  0  0  0  0  0
    2.5112    3.3830   -5.1881 C   0  0  0  0  0  0  0  0  0  0  0  0
    2.5435    5.7998   -6.0848 C   0  0  3  0  0  0  0  0  0  0  0  0
    3.7029    6.0637   -5.3010 O   0  0  0  0  0  0  0  0  0  0  0  0
    3.8341    7.3484   -4.8744 C   0  0  0  0  0  0  0  0  0  0  0  0
    4.4810    7.6384   -3.8798 O   0  0  0  0  0  0  0  0  0  0  0  0
    3.1399    8.2679   -5.5969 O   0  0  0  0  0  0  0  0  0  0  0  0
    2.9769    8.0574   -7.0074 C   0  0  0  0  0  0  0  0  0  0  0  0
    2.6495    6.6416   -7.3149 C   0  0  0  0  0  0  0  0  0  0  0  0
    2.5268    6.1134   -8.5524 C   0  0  0  0  0  0  0  0  0  0  0  0
    2.3135    4.7492   -8.6749 N   0  0  0  0  0  0  0  0  0  0  0  0
    2.6368    6.8819   -9.8137 C   0  0  0  0  0  0  0  0  0  0  0  0
    3.9067    7.1331  -10.4333 O   0  0  0  0  0  0  0  0  0  0  0  0
    2.9618    6.2465  -11.0634 O   0  0  0  0  0  0  0  0  0  0  0  0
    2.3008    0.1993   -7.3426 C   0  0  0  0  0  0  0  0  0  0  0  0
    3.5059   -0.3533   -7.5805 N   0  0  0  0  0  0  0  0  0  0  0  0
    3.5130   -1.6515   -7.8949 C   0  0  0  0  0  0  0  0  0  0  0  0
    2.4266   -2.4370   -7.9999 N   0  3  0  0  0  0  0  0  0  0  0  0
    1.1952   -1.8926   -7.7721 C   0  0  0  0  0  0  0  0  0  0  0  0
    1.0974   -0.5157   -7.4462 C   0  0  0  0  0  0  0  0  0  0  0  0
   -0.1835    0.0568   -7.2456 C   0  0  0  0  0  0  0  0  0  0  0  0
   -1.3404   -0.7215   -7.3348 C   0  0  0  0  0  0  0  0  0  0  0  0
   -1.2443   -2.0811   -7.5946 C   0  0  0  0  0  0  0  0  0  0  0  0
    0.0095   -2.6550   -7.8379 C   0  0  0  0  0  0  0  0  0  0  0  0
   -2.3106   -2.9369   -7.6354 O   0  0  0  0  0  0  0  0  0  0  0  0
   -3.5182   -2.4838   -6.9953 C   0  0  2  0  0  0  0  0  0  0  0  0
   -3.8506   -1.0385   -7.2758 C   0  0  0  0  0  0  0  0  0  0  0  0
   -4.9628   -0.6223   -7.5597 O   0  0  0  0  0  0  0  0  0  0  0  0
   -2.6656   -0.1070   -7.1685 C   0  0  0  0  0  0  0  0  0  0  0  0
   -2.8006    1.0895   -6.9798 O   0  0  0  0  0  0  0  0  0  0  0  0
   -3.4653   -2.7523   -5.5247 C   0  0  1  0  0  0  0  0  0  0  0  0
   -2.4301   -2.0699   -4.7705 O   0  0  0  0  0  0  0  0  0  0  0  0
   -4.7295   -2.8619   -4.8791 O   0  0  0  0  0  0  0  0  0  0  0  0
   -3.9783   -3.9785   -4.9135 C   0  0  0  0  0  0  0  0  0  0  0  0
   -3.4990   -4.6289   -4.0085 O   0  0  0  0  0  0  0  0  0  0  0  0
    2.6165   -3.8502   -8.3618 C   0  0  0  0  0  0  0  0  0  0  0  0
    2.0311   -0.0205   -2.4938 C   0  0  0  0  0  0  0  0  0  0  0  0
    2.5460   -1.0808   -2.8208 O   0  0  0  0  0  0  0  0  0  0  0  0
    1.3557    0.1530   -1.1546 C   0  0  0  0  0  0  0  0  0  0  0  0
    1.5861   -0.6259   -0.2449 O   0  0  0  0  0  0  0  0  0  0  0  0
    0.3801    1.3028   -0.9751 C   0  0  0  0  0  0  0  0  0  0  0  0
    0.0016    1.6652    0.1244 O   0  0  0  0  0  0  0  0  0  0  0  0
  1  2  1  0  0  0  0
  2  3  2  0  0  0  0
  3  4  1  0  0  0  0
  3 51  1  0  0  0  0
  4  5  1  0  0  0  0
  5  6  1  6  0  0  0
  5 47  1  0  0  0  0
  6  7  1  0  0  0  0
  7  8  2  0  0  0  0
  7 12  1  0  0  0  0
  8  9  1  0  0  0  0
  8 25  1  0  0  0  0
  9 10  1  0  0  0  0
 10 11  2  0  0  0  0
 10 21  1  0  0  0  0
 11 12  1  0  0  0  0
 11 13  1  0  0  0  0
 13 14  1  0  0  0  0
 13 19  1  0  0  0  0
 14 15  1  0  0  0  0
 15 16  2  0  0  0  0
 15 17  1  0  0  0  0
 17 18  1  0  0  0  0
 18 19  1  0  0  0  0
 19 20  2  0  0  0  0
 20 21  1  0  0  0  0
 20 22  1  0  0  0  0
 22 23  1  0  0  0  0
 22 24  1  0  0  0  0
 23 24  1  0  0  0  0
 25 26  2  0  0  0  0
 25 30  1  0  0  0  0
 26 27  1  0  0  0  0
 27 28  2  0  0  0  0
 28 29  1  0  0  0  0
 28 46  1  0  0  0  0
 29 30  2  0  0  0  0
 29 34  1  0  0  0  0
 30 31  1  0  0  0  0
 31 32  2  0  0  0  0
 32 33  1  0  0  0  0
 32 39  1  0  0  0  0
 33 34  2  0  0  0  0
 33 35  1  0  0  0  0
 36 35  1  1  0  0  0
 36 37  1  0  0  0  0
 36 41  1  0  0  0  0
 37 38  2  0  0  0  0
 37 39  1  0  0  0  0
 39 40  2  0  0  0  0
 41 42  1  1  0  0  0
 41 43  1  0  0  0  0
 41 44  1  0  0  0  0
 43 44  1  0  0  0  0
 44 45  2  0  0  0  0
 47 48  2  0  0  0  0
 47 49  1  0  0  0  0
 49 50  2  0  0  0  0
 49 51  1  0  0  0  0
 51 52  2  0  0  0  0
M  CHG  1  28   1
M  END
$$$$