
 OpenBabel11212020543D

 54 62  0  0  1  0  0  0  0  0999 V2000
    3.5354    0.7180    7.9447 O   0  0  0  0  0  0  0  0  0  0  0  0
    3.3540    1.6370    6.9379 C   0  0  0  0  0  0  0  0  0  0  0  0
    3.1183    1.2903    5.6659 C   0  0  0  0  0  0  0  0  0  0  0  0
    3.1390   -0.0212    5.2685 O   0  0  0  0  0  0  0  0  0  0  0  0
    2.0897   -0.3948    4.3975 C   0  0  2  0  0  0  0  0  0  0  0  0
    2.2222   -1.7788    3.9695 O   0  0  0  0  0  0  0  0  0  0  0  0
    2.2853   -2.7854    4.9278 C   0  0  0  0  0  0  0  0  0  0  0  0
    1.9352   -4.0648    4.6480 C   0  0  0  0  0  0  0  0  0  0  0  0
    2.1231   -5.1015    5.5841 O   0  0  0  0  0  0  0  0  0  0  0  0
    2.6746   -4.8394    6.8418 C   0  0  0  0  0  0  0  0  0  0  0  0
    2.9682   -3.5847    7.2122 C   0  0  0  0  0  0  0  0  0  0  0  0
    2.7718   -2.4207    6.3058 C   0  0  0  0  0  0  0  0  0  0  0  0
    3.5838   -3.2534    8.5376 C   0  0  3  0  0  0  0  0  0  0  0  0
    2.6486   -2.5009    9.2848 O   0  0  0  0  0  0  0  0  0  0  0  0
    3.0753   -2.0778   10.5063 C   0  0  0  0  0  0  0  0  0  0  0  0
    2.5177   -1.1720   11.1029 O   0  0  0  0  0  0  0  0  0  0  0  0
    4.1659   -2.7192   10.9968 O   0  0  0  0  0  0  0  0  0  0  0  0
    4.4786   -4.0592   10.6257 C   0  0  3  0  0  0  0  0  0  0  0  0
    3.8476   -4.4634    9.3413 C   0  0  0  0  0  0  0  0  0  0  0  0
    3.5318   -5.7101    8.9244 C   0  0  0  0  0  0  0  0  0  0  0  0
    2.9150   -5.9011    7.6903 O   0  3  0  0  0  0  0  0  0  0  0  0
    3.8429   -6.9394    9.6961 C   0  0  0  0  0  0  0  0  0  0  0  0
    3.4865   -8.2345    9.1819 O   0  0  0  0  0  0  0  0  0  0  0  0
    4.8693   -7.8396    9.2549 O   0  0  0  0  0  0  0  0  0  0  0  0
    5.8681   -4.1535   10.3918 O   0  0  0  0  0  0  0  0  0  0  0  0
    1.3225   -4.4923    3.3420 C   0  0  0  0  0  0  0  0  0  0  0  0
    1.7595   -3.8229    2.2541 N   0  0  0  0  0  0  0  0  0  0  0  0
    1.2518   -4.1009    1.0625 N   0  3  0  0  0  0  0  0  0  0  0  0
    1.6661   -3.3763    0.0052 F   0  0  0  0  0  0  0  0  0  0  0  0
    0.3507   -5.0708    0.8711 C   0  0  0  0  0  0  0  0  0  0  0  0
   -0.1369   -5.8079    1.9447 C   0  0  0  0  0  0  0  0  0  0  0  0
    0.3351   -5.5051    3.2343 C   0  0  0  0  0  0  0  0  0  0  0  0
   -0.2450   -6.2289    4.3035 C   0  0  0  0  0  0  0  0  0  0  0  0
   -1.1948   -7.2403    4.0902 C   0  0  0  0  0  0  0  0  0  0  0  0
   -1.7199   -7.9781    5.2402 C   0  0  0  0  0  0  0  0  0  0  0  0
   -1.3146   -7.7465    6.3687 O   0  0  0  0  0  0  0  0  0  0  0  0
   -2.7406   -9.0437    4.9330 C   0  0  0  0  0  0  0  0  0  0  0  0
   -3.5825   -9.3456    5.7624 O   0  0  0  0  0  0  0  0  0  0  0  0
   -2.5928   -9.6391    3.5500 C   0  0  1  0  0  0  0  0  0  0  0  0
   -2.4345   -8.6263    2.5296 O   0  0  0  0  0  0  0  0  0  0  0  0
   -1.6028   -7.5788    2.8126 C   0  0  0  0  0  0  0  0  0  0  0  0
   -1.0883   -6.8337    1.7509 C   0  0  0  0  0  0  0  0  0  0  0  0
   -1.4785   -7.1158    0.4987 F   0  0  0  0  0  0  0  0  0  0  0  0
   -1.5117  -10.6975    3.5105 C   0  0  1  0  0  0  0  0  0  0  0  0
   -1.6978  -11.8266    4.3828 O   0  0  0  0  0  0  0  0  0  0  0  0
   -0.9786  -11.0044    2.2119 O   0  0  0  0  0  0  0  0  0  0  0  0
   -0.1439  -10.4584    3.0959 C   0  0  0  0  0  0  0  0  0  0  0  0
    0.5490   -9.4504    3.0746 O   0  0  0  0  0  0  0  0  0  0  0  0
    2.0508    0.4712    3.1356 C   0  0  0  0  0  0  0  0  0  0  0  0
    1.5465    0.0477    2.0876 O   0  0  0  0  0  0  0  0  0  0  0  0
    2.6913    1.8434    3.2233 C   0  0  3  0  0  0  0  0  0  0  0  0
    2.9451    2.3408    4.6270 C   0  0  0  0  0  0  0  0  0  0  0  0
    3.0630    3.5316    4.9018 O   0  0  0  0  0  0  0  0  0  0  0  0
    3.8462    1.8606    2.4929 F   0  0  0  0  0  0  0  0  0  0  0  0
  1  2  1  0  0  0  0
  2  3  2  0  0  0  0
  3  4  1  0  0  0  0
  3 52  1  0  0  0  0
  4  5  1  0  0  0  0
  5  6  1  6  0  0  0
  5 49  1  0  0  0  0
  6  7  1  0  0  0  0
  7  8  2  0  0  0  0
  7 12  1  0  0  0  0
  8  9  1  0  0  0  0
  8 26  1  0  0  0  0
  9 10  1  0  0  0  0
 10 11  2  0  0  0  0
 10 21  1  0  0  0  0
 11 12  1  0  0  0  0
 11 13  1  0  0  0  0
 13 14  1  0  0  0  0
 13 19  1  0  0  0  0
 14 15  1  0  0  0  0
 15 16  2  0  0  0  0
 15 17  1  0  0  0  0
 17 18  1  0  0  0  0
 18 19  1  0  0  0  0
 18 25  1  0  0  0  0
 19 20  2  0  0  0  0
 20 21  1  0  0  0  0
 20 22  1  0  0  0  0
 22 23  1  0  0  0  0
 22 24  1  0  0  0  0
 23 24  1  0  0  0  0
 26 27  2  0  0  0  0
 26 32  1  0  0  0  0
 27 28  1  0  0  0  0
 28 29  1  0  0  0  0
 28 30  2  0  0  0  0
 30 31  1  0  0  0  0
 31 32  2  0  0  0  0
 31 42  1  0  0  0  0
 32 33  1  0  0  0  0
 33 34  2  0  0  0  0
 34 35  1  0  0  0  0
 34 41  1  0  0  0  0
 35 36  2  0  0  0  0
 35 37  1  0  0  0  0
 37 38  2  0  0  0  0
 39 37  1  1  0  0  0
 39 40  1  0  0  0  0
 39 44  1  0  0  0  0
 40 41  1  0  0  0  0
 41 42  2  0  0  0  0
 42 43  1  0  0  0  0
 44 45  1  1  0  0  0
 44 46  1  0  0  0  0
 44 47  1  0  0  0  0
 46 47  1  0  0  0  0
 47 48  2  0  0  0  0
 49 50  2  0  0  0  0
 49 51  1  0  0  0  0
 51 52  1  0  0  0  0
 51 54  1  0  0  0  0
 52 53  2  0  0  0  0
M  CHG  2  21   1  28   1
M  END
$$$$