
 OpenBabel11222000163D

 55 63  0  0  1  0  0  0  0  0999 V2000
   -2.3530   -0.4249   -4.7414 O   0  0  0  0  0  0  0  0  0  0  0  0
   -1.9546    0.0032   -3.4989 C   0  0  0  0  0  0  0  0  0  0  0  0
   -0.8040   -0.3893   -2.9401 C   0  0  0  0  0  0  0  0  0  0  0  0
    0.0066   -1.2877   -3.6123 O   0  0  0  0  0  0  0  0  0  0  0  0
    1.3682   -1.3286   -3.2294 C   0  0  2  0  0  0  0  0  0  0  0  0
    2.0158   -2.4550   -3.8585 O   0  0  0  0  0  0  0  0  0  0  0  0
    2.1360   -2.4769   -5.2384 C   0  0  0  0  0  0  0  0  0  0  0  0
    2.1811   -3.6431   -5.9311 C   0  0  0  0  0  0  0  0  0  0  0  0
    2.3388   -3.6483   -7.3284 O   0  0  0  0  0  0  0  0  0  0  0  0
    2.5742   -2.4601   -8.0281 C   0  0  0  0  0  0  0  0  0  0  0  0
    2.6381   -1.2831   -7.3835 C   0  0  0  0  0  0  0  0  0  0  0  0
    2.3393   -1.1539   -5.9253 C   0  0  0  0  0  0  0  0  0  0  0  0
    3.0166   -0.0081   -8.0774 C   0  0  3  0  0  0  0  0  0  0  0  0
    4.2744    0.3752   -7.5489 O   0  0  0  0  0  0  0  0  0  0  0  0
    4.9078    1.4474   -8.0934 C   0  0  0  0  0  0  0  0  0  0  0  0
    5.8538    1.9716   -7.5295 O   0  0  0  0  0  0  0  0  0  0  0  0
    4.4515    1.8663   -9.2974 O   0  0  0  0  0  0  0  0  0  0  0  0
    3.5736    1.1133  -10.1288 C   0  0  3  0  0  0  0  0  0  0  0  0
    3.2154   -0.1999   -9.5297 C   0  0  0  0  0  0  0  0  0  0  0  0
    3.0812   -1.3999  -10.1392 C   0  0  0  0  0  0  0  0  0  0  0  0
    2.7636   -2.5333   -9.3938 O   0  3  0  0  0  0  0  0  0  0  0  0
    3.2219   -1.6132  -11.6010 C   0  0  0  0  0  0  0  0  0  0  0  0
    3.0305   -2.9236  -12.1645 O   0  0  0  0  0  0  0  0  0  0  0  0
    2.0712   -1.8788  -12.4136 O   0  0  0  0  0  0  0  0  0  0  0  0
    2.3558    1.8140  -10.2648 O   0  0  0  0  0  0  0  0  0  0  0  0
    2.0994   -5.0075   -5.2796 C   0  0  0  0  0  0  0  0  0  0  0  0
    2.6105   -5.1495   -3.9858 C   0  0  0  0  0  0  0  0  0  0  0  0
    2.5445   -6.3067   -3.3327 N   0  3  0  0  0  0  0  0  0  0  0  0
    3.0285   -6.3826   -2.0779 F   0  0  0  0  0  0  0  0  0  0  0  0
    2.0349   -7.3838   -3.8707 N   0  0  0  0  0  0  0  0  0  0  0  0
    1.5264   -7.3792   -5.1009 C   0  0  0  0  0  0  0  0  0  0  0  0
    1.5677   -6.1925   -5.8778 C   0  0  0  0  0  0  0  0  0  0  0  0
    1.0760   -6.2785   -7.2004 C   0  0  0  0  0  0  0  0  0  0  0  0
    0.5754   -7.4715   -7.7392 C   0  0  0  0  0  0  0  0  0  0  0  0
    0.1324   -7.4942   -9.1341 C   0  0  0  0  0  0  0  0  0  0  0  0
    0.4485   -6.5793   -9.8820 O   0  0  0  0  0  0  0  0  0  0  0  0
   -0.6988   -8.6766   -9.5780 C   0  0  0  0  0  0  0  0  0  0  0  0
   -1.0176   -8.7857  -10.7518 O   0  0  0  0  0  0  0  0  0  0  0  0
   -1.1132   -9.6153   -8.4624 C   0  0  1  0  0  0  0  0  0  0  0  0
   -0.1123   -9.7563   -7.4266 O   0  0  0  0  0  0  0  0  0  0  0  0
    0.4811   -8.6113   -6.9658 C   0  0  0  0  0  0  0  0  0  0  0  0
    0.9602   -8.5638   -5.6419 C   0  0  0  0  0  0  0  0  0  0  0  0
    0.8082   -9.8191   -4.8388 C   0  0  0  0  0  0  0  0  0  0  0  0
    0.5683   -9.9200   -3.1813 S   0  0  0  0  0  0  0  0  0  0  0  0
   -2.4865   -9.2751   -7.9226 C   0  0  1  0  0  0  0  0  0  0  0  0
   -3.5747   -9.3313   -8.8589 O   0  0  0  0  0  0  0  0  0  0  0  0
   -2.7857   -9.7889   -6.6094 O   0  0  0  0  0  0  0  0  0  0  0  0
   -2.7127   -8.4582   -6.7408 C   0  0  0  0  0  0  0  0  0  0  0  0
   -2.0142   -7.6227   -6.1883 O   0  0  0  0  0  0  0  0  0  0  0  0
    1.5069   -1.5228   -1.7349 C   0  0  0  0  0  0  0  0  0  0  0  0
    2.1049   -2.4386   -1.1888 O   0  0  0  0  0  0  0  0  0  0  0  0
    0.7940   -0.4368   -0.9776 C   0  0  0  0  0  0  0  0  0  0  0  0
    1.2938    0.0217    0.0338 O   0  0  0  0  0  0  0  0  0  0  0  0
   -0.4824    0.1259   -1.5727 C   0  0  0  0  0  0  0  0  0  0  0  0
   -1.1654    0.9379   -0.9744 O   0  0  0  0  0  0  0  0  0  0  0  0
  1  2  1  0  0  0  0
  2  3  2  0  0  0  0
  3  4  1  0  0  0  0
  3 54  1  0  0  0  0
  4  5  1  0  0  0  0
  5  6  1  6  0  0  0
  5 50  1  0  0  0  0
  6  7  1  0  0  0  0
  7  8  2  0  0  0  0
  7 12  1  0  0  0  0
  8  9  1  0  0  0  0
  8 26  1  0  0  0  0
  9 10  1  0  0  0  0
 10 11  2  0  0  0  0
 10 21  1  0  0  0  0
 11 12  1  0  0  0  0
 11 13  1  0  0  0  0
 13 14  1  0  0  0  0
 13 19  1  0  0  0  0
 14 15  1  0  0  0  0
 15 16  2  0  0  0  0
 15 17  1  0  0  0  0
 17 18  1  0  0  0  0
 18 19  1  0  0  0  0
 18 25  1  0  0  0  0
 19 20  2  0  0  0  0
 20 21  1  0  0  0  0
 20 22  1  0  0  0  0
 22 23  1  0  0  0  0
 22 24  1  0  0  0  0
 23 24  1  0  0  0  0
 26 27  2  0  0  0  0
 26 32  1  0  0  0  0
 27 28  1  0  0  0  0
 28 29  1  0  0  0  0
 28 30  2  0  0  0  0
 30 31  1  0  0  0  0
 31 32  2  0  0  0  0
 31 42  1  0  0  0  0
 32 33  1  0  0  0  0
 33 34  2  0  0  0  0
 34 35  1  0  0  0  0
 34 41  1  0  0  0  0
 35 36  2  0  0  0  0
 35 37  1  0  0  0  0
 37 38  2  0  0  0  0
 39 37  1  6  0  0  0
 39 40  1  0  0  0  0
 39 45  1  0  0  0  0
 40 41  1  0  0  0  0
 41 42  2  0  0  0  0
 42 43  1  0  0  0  0
 43 44  2  0  0  0  0
 45 46  1  6  0  0  0
 45 47  1  0  0  0  0
 45 48  1  0  0  0  0
 47 48  1  0  0  0  0
 48 49  2  0  0  0  0
 50 51  2  0  0  0  0
 50 52  1  0  0  0  0
 52 53  2  0  0  0  0
 52 54  1  0  0  0  0
 54 55  2  0  0  0  0
M  CHG  2  21   1  28   1
M  END
$$$$