
 OpenBabel11262011223D

 53 61  0  0  1  0  0  0  0  0999 V2000
   -1.9938    3.9359   -3.3948 F   0  0  0  0  0  0  0  0  0  0  0  0
   -1.6859    3.1067   -2.3797 C   0  0  0  0  0  0  0  0  0  0  0  0
   -0.7469    2.1694   -2.5135 C   0  0  0  0  0  0  0  0  0  0  0  0
   -0.0738    2.0074   -3.7127 O   0  0  0  0  0  0  0  0  0  0  0  0
    1.2891    1.6213   -3.5404 C   0  0  2  0  0  0  0  0  0  0  0  0
    1.9785    1.5661   -4.7988 O   0  0  0  0  0  0  0  0  0  0  0  0
    2.0120    2.7366   -5.5423 C   0  0  0  0  0  0  0  0  0  0  0  0
    2.0644    2.6798   -6.8869 C   0  0  0  0  0  0  0  0  0  0  0  0
    2.1658    3.7944   -7.7011 O   0  0  0  0  0  0  0  0  0  0  0  0
    2.2992    5.0429   -7.1131 C   0  0  0  0  0  0  0  0  0  0  0  0
    2.2893    5.2120   -5.7792 C   0  0  0  0  0  0  0  0  0  0  0  0
    2.0892    4.0686   -4.8328 C   0  0  0  0  0  0  0  0  0  0  0  0
    2.4176    6.5943   -5.1879 C   0  0  3  0  0  0  0  0  0  0  0  0
    3.6028    6.6156   -4.3410 N   0  0  0  0  0  0  0  0  0  0  0  0
    3.9126    7.7975   -3.7527 C   0  0  0  0  0  0  0  0  0  0  0  0
    4.3883    7.8735   -2.5644 N   0  0  0  0  0  0  0  0  0  0  0  0
    3.7686    8.8933   -4.5258 N   0  0  0  0  0  0  0  0  0  0  0  0
    2.7619    9.0268   -5.5532 C   0  0  0  0  0  0  0  0  0  0  0  0
    2.5809    7.6925   -6.2044 C   0  0  0  0  0  0  0  0  0  0  0  0
    2.5792    7.4309   -7.5298 C   0  0  0  0  0  0  0  0  0  0  0  0
    2.4483    6.1150   -7.9511 N   0  0  0  0  0  0  0  0  0  0  0  0
    2.7134    8.4520   -8.5926 C   0  0  0  0  0  0  0  0  0  0  0  0
    2.0878    8.2857   -9.8779 O   0  0  0  0  0  0  0  0  0  0  0  0
    1.6182    9.3005   -8.9688 O   0  0  0  0  0  0  0  0  0  0  0  0
    2.0673    1.4076   -7.6176 C   0  0  0  0  0  0  0  0  0  0  0  0
    3.2972    0.8218   -7.8872 C   0  0  0  0  0  0  0  0  0  0  0  0
    3.3625   -0.3449   -8.5328 N   0  3  0  0  0  0  0  0  0  0  0  0
    4.5688   -0.8896   -8.7800 F   0  0  0  0  0  0  0  0  0  0  0  0
    2.2857   -0.9913   -8.9436 N   0  0  0  0  0  0  0  0  0  0  0  0
    1.0722   -0.4802   -8.6983 C   0  0  0  0  0  0  0  0  0  0  0  0
    0.8995    0.7414   -8.0270 C   0  0  0  0  0  0  0  0  0  0  0  0
   -0.4130    1.2246   -7.7996 C   0  0  0  0  0  0  0  0  0  0  0  0
   -1.5315    0.4901   -8.2128 C   0  0  0  0  0  0  0  0  0  0  0  0
   -2.8869    0.9989   -7.9687 C   0  0  0  0  0  0  0  0  0  0  0  0
   -3.0633    2.0994   -7.4735 O   0  0  0  0  0  0  0  0  0  0  0  0
   -4.0387    0.0992   -8.3615 C   0  0  0  0  0  0  0  0  0  0  0  0
   -5.1817    0.5268   -8.4155 O   0  0  0  0  0  0  0  0  0  0  0  0
   -3.6478   -1.3394   -8.6120 C   0  0  1  0  0  0  0  0  0  0  0  0
   -2.3945   -1.5085   -9.2885 O   0  0  0  0  0  0  0  0  0  0  0  0
   -1.3639   -0.7221   -8.8586 C   0  0  0  0  0  0  0  0  0  0  0  0
   -0.0658   -1.1752   -9.1081 C   0  0  0  0  0  0  0  0  0  0  0  0
    0.0949   -2.3441   -9.7502 F   0  0  0  0  0  0  0  0  0  0  0  0
   -3.6536   -2.1298   -7.3432 C   0  0  1  0  0  0  0  0  0  0  0  0
   -2.8099   -1.6427   -6.2663 O   0  0  0  0  0  0  0  0  0  0  0  0
   -4.9111   -2.6697   -6.9581 O   0  0  0  0  0  0  0  0  0  0  0  0
   -3.9588   -3.5608   -7.2965 C   0  0  0  0  0  0  0  0  0  0  0  0
   -3.4296   -4.4260   -6.6289 O   0  0  0  0  0  0  0  0  0  0  0  0
    1.3238    0.2329   -2.9299 C   0  0  0  0  0  0  0  0  0  0  0  0
    1.9358   -0.7270   -3.3760 O   0  0  0  0  0  0  0  0  0  0  0  0
    0.4867    0.1443   -1.6745 C   0  0  0  0  0  0  0  0  0  0  0  0
    0.5665   -0.8313   -0.9484 O   0  0  0  0  0  0  0  0  0  0  0  0
   -0.4516    1.2935   -1.3467 C   0  0  0  0  0  0  0  0  0  0  0  0
   -0.8666    1.4917   -0.2198 O   0  0  0  0  0  0  0  0  0  0  0  0
  1  2  1  0  0  0  0
  2  3  2  0  0  0  0
  3  4  1  0  0  0  0
  3 52  1  0  0  0  0
  4  5  1  0  0  0  0
  5  6  1  6  0  0  0
  5 48  1  0  0  0  0
  6  7  1  0  0  0  0
  7  8  2  0  0  0  0
  7 12  1  0  0  0  0
  8  9  1  0  0  0  0
  8 25  1  0  0  0  0
  9 10  1  0  0  0  0
 10 11  2  0  0  0  0
 10 21  1  0  0  0  0
 11 12  1  0  0  0  0
 11 13  1  0  0  0  0
 13 14  1  0  0  0  0
 13 19  1  0  0  0  0
 14 15  1  0  0  0  0
 15 16  2  0  0  0  0
 15 17  1  0  0  0  0
 17 18  1  0  0  0  0
 18 19  1  0  0  0  0
 19 20  2  0  0  0  0
 20 21  1  0  0  0  0
 20 22  1  0  0  0  0
 22 23  1  0  0  0  0
 22 24  1  0  0  0  0
 23 24  1  0  0  0  0
 25 26  2  0  0  0  0
 25 31  1  0  0  0  0
 26 27  1  0  0  0  0
 27 28  1  0  0  0  0
 27 29  2  0  0  0  0
 29 30  1  0  0  0  0
 30 31  2  0  0  0  0
 30 41  1  0  0  0  0
 31 32  1  0  0  0  0
 32 33  2  0  0  0  0
 33 34  1  0  0  0  0
 33 40  1  0  0  0  0
 34 35  2  0  0  0  0
 34 36  1  0  0  0  0
 36 37  2  0  0  0  0
 38 36  1  1  0  0  0
 38 39  1  0  0  0  0
 38 43  1  0  0  0  0
 39 40  1  0  0  0  0
 40 41  2  0  0  0  0
 41 42  1  0  0  0  0
 43 44  1  1  0  0  0
 43 45  1  0  0  0  0
 43 46  1  0  0  0  0
 45 46  1  0  0  0  0
 46 47  2  0  0  0  0
 48 49  2  0  0  0  0
 48 50  1  0  0  0  0
 50 51  2  0  0  0  0
 50 52  1  0  0  0  0
 52 53  2  0  0  0  0
M  CHG  1  27   1
M  END
$$$$