
 OpenBabel11212001113D

 52 60  0  0  1  0  0  0  0  0999 V2000
    0.3273    6.0581    1.1435 O   0  0  0  0  0  0  0  0  0  0  0  0
    0.4747    4.7575    1.5597 C   0  0  0  0  0  0  0  0  0  0  0  0
    0.5706    3.7243    0.7141 C   0  0  0  0  0  0  0  0  0  0  0  0
    0.4866    3.8951   -0.6555 O   0  0  0  0  0  0  0  0  0  0  0  0
    1.4973    3.1651   -1.3590 C   0  0  2  0  0  0  0  0  0  0  0  0
    1.5526    3.5213   -2.7554 O   0  0  0  0  0  0  0  0  0  0  0  0
    1.8610    4.8328   -3.0990 C   0  0  0  0  0  0  0  0  0  0  0  0
    2.4818    5.1246   -4.2635 C   0  0  0  0  0  0  0  0  0  0  0  0
    2.7514    6.4320   -4.6776 O   0  0  0  0  0  0  0  0  0  0  0  0
    2.3557    7.5054   -3.8790 C   0  0  0  0  0  0  0  0  0  0  0  0
    1.7378    7.3109   -2.7009 C   0  0  0  0  0  0  0  0  0  0  0  0
    1.3981    5.9445   -2.1960 C   0  0  0  0  0  0  0  0  0  0  0  0
    1.2947    8.4460   -1.8250 C   0  0  3  0  0  0  0  0  0  0  0  0
    2.0020    8.3786   -0.5988 O   0  0  0  0  0  0  0  0  0  0  0  0
    1.6241    9.2931    0.3357 C   0  0  0  0  0  0  0  0  0  0  0  0
    1.8274    9.1254    1.5274 O   0  0  0  0  0  0  0  0  0  0  0  0
    0.9738   10.3789   -0.1553 O   0  0  0  0  0  0  0  0  0  0  0  0
    1.2552   10.8495   -1.4697 C   0  0  3  0  0  0  0  0  0  0  0  0
    1.6456    9.7591   -2.4049 C   0  0  0  0  0  0  0  0  0  0  0  0
    2.2594    9.8953   -3.6021 C   0  0  0  0  0  0  0  0  0  0  0  0
    2.6112    8.7751   -4.3444 O   0  3  0  0  0  0  0  0  0  0  0  0
    2.6118   11.2109   -4.1831 C   0  0  0  0  0  0  0  0  0  0  0  0
    3.8841   11.8150   -3.9160 O   0  0  0  0  0  0  0  0  0  0  0  0
    3.5869   11.3129   -5.2336 O   0  0  0  0  0  0  0  0  0  0  0  0
    0.0661   11.3866   -2.0165 O   0  0  0  0  0  0  0  0  0  0  0  0
    2.9461    4.0813   -5.2026 C   0  0  0  0  0  0  0  0  0  0  0  0
    4.2259    3.5723   -5.0415 C   0  0  0  0  0  0  0  0  0  0  0  0
    4.7287    2.6042   -5.8244 N   0  0  0  0  0  0  0  0  0  0  0  0
    3.9505    2.0652   -6.8090 N   0  0  0  0  0  0  0  0  0  0  0  0
    2.7012    2.4971   -7.0213 C   0  0  0  0  0  0  0  0  0  0  0  0
    2.1512    3.5373   -6.2423 C   0  0  0  0  0  0  0  0  0  0  0  0
    0.8426    3.9711   -6.5474 C   0  0  0  0  0  0  0  0  0  0  0  0
    0.0984    3.3660   -7.5726 C   0  0  0  0  0  0  0  0  0  0  0  0
    0.6344    2.3290   -8.3142 C   0  0  0  0  0  0  0  0  0  0  0  0
    1.9379    1.9139   -8.0338 C   0  0  0  0  0  0  0  0  0  0  0  0
    0.0011    1.6859   -9.3365 O   0  0  0  0  0  0  0  0  0  0  0  0
   -1.4111    1.8706   -9.4729 C   0  0  2  0  0  0  0  0  0  0  0  0
   -2.0014    3.1795   -8.9889 C   0  0  0  0  0  0  0  0  0  0  0  0
   -3.0351    3.6727   -9.4203 O   0  0  0  0  0  0  0  0  0  0  0  0
   -1.2428    3.8617   -7.8780 C   0  0  0  0  0  0  0  0  0  0  0  0
   -1.7057    4.8229   -7.2803 O   0  0  0  0  0  0  0  0  0  0  0  0
   -2.1412    0.7122   -8.8688 C   0  0  1  0  0  0  0  0  0  0  0  0
   -1.9022    0.4663   -7.4618 O   0  0  0  0  0  0  0  0  0  0  0  0
   -3.4978    0.5781   -9.3009 O   0  0  0  0  0  0  0  0  0  0  0  0
   -2.6636   -0.4232   -9.6324 C   0  0  0  0  0  0  0  0  0  0  0  0
   -2.7123   -1.5981   -9.3435 O   0  0  0  0  0  0  0  0  0  0  0  0
    1.2044    1.6731   -1.2160 C   0  0  0  0  0  0  0  0  0  0  0  0
    1.3657    0.8296   -2.0850 O   0  0  0  0  0  0  0  0  0  0  0  0
    0.7342    1.2936    0.1766 C   0  0  0  0  0  0  0  0  0  0  0  0
    0.3202    0.1729    0.4197 O   0  0  0  0  0  0  0  0  0  0  0  0
    0.7561    2.3540    1.2601 C   0  0  0  0  0  0  0  0  0  0  0  0
    0.9737    2.0982    2.4298 O   0  0  0  0  0  0  0  0  0  0  0  0
  1  2  1  0  0  0  0
  2  3  2  0  0  0  0
  3  4  1  0  0  0  0
  3 51  1  0  0  0  0
  4  5  1  0  0  0  0
  5  6  1  6  0  0  0
  5 47  1  0  0  0  0
  6  7  1  0  0  0  0
  7  8  2  0  0  0  0
  7 12  1  0  0  0  0
  8  9  1  0  0  0  0
  8 26  1  0  0  0  0
  9 10  1  0  0  0  0
 10 11  2  0  0  0  0
 10 21  1  0  0  0  0
 11 12  1  0  0  0  0
 11 13  1  0  0  0  0
 13 14  1  0  0  0  0
 13 19  1  0  0  0  0
 14 15  1  0  0  0  0
 15 16  2  0  0  0  0
 15 17  1  0  0  0  0
 17 18  1  0  0  0  0
 18 19  1  0  0  0  0
 18 25  1  0  0  0  0
 19 20  2  0  0  0  0
 20 21  1  0  0  0  0
 20 22  1  0  0  0  0
 22 23  1  0  0  0  0
 22 24  1  0  0  0  0
 23 24  1  0  0  0  0
 26 27  2  0  0  0  0
 26 31  1  0  0  0  0
 27 28  1  0  0  0  0
 28 29  2  0  0  0  0
 29 30  1  0  0  0  0
 30 31  2  0  0  0  0
 30 35  1  0  0  0  0
 31 32  1  0  0  0  0
 32 33  2  0  0  0  0
 33 34  1  0  0  0  0
 33 40  1  0  0  0  0
 34 35  2  0  0  0  0
 34 36  1  0  0  0  0
 37 36  1  1  0  0  0
 37 38  1  0  0  0  0
 37 42  1  0  0  0  0
 38 39  2  0  0  0  0
 38 40  1  0  0  0  0
 40 41  2  0  0  0  0
 42 43  1  1  0  0  0
 42 44  1  0  0  0  0
 42 45  1  0  0  0  0
 44 45  1  0  0  0  0
 45 46  2  0  0  0  0
 47 48  2  0  0  0  0
 47 49  1  0  0  0  0
 49 50  2  0  0  0  0
 49 51  1  0  0  0  0
 51 52  2  0  0  0  0
M  CHG  1  21   1
M  END
$$$$