
 OpenBabel11252023503D

 54 62  0  0  1  0  0  0  0  0999 V2000
    7.3448    2.7426    5.3507 O   0  0  0  0  0  0  0  0  0  0  0  0
    6.9838    3.1122    4.0775 C   0  0  0  0  0  0  0  0  0  0  0  0
    5.8565    2.6847    3.5010 C   0  0  0  0  0  0  0  0  0  0  0  0
    5.0100    1.8121    4.1691 O   0  0  0  0  0  0  0  0  0  0  0  0
    3.6526    2.0600    3.8176 C   0  0  2  0  0  0  0  0  0  0  0  0
    2.7681    1.2284    4.6126 O   0  0  0  0  0  0  0  0  0  0  0  0
    2.9474    1.2319    5.9870 C   0  0  0  0  0  0  0  0  0  0  0  0
    2.7209    0.1059    6.6904 C   0  0  0  0  0  0  0  0  0  0  0  0
    2.8559    0.0343    8.0834 O   0  0  0  0  0  0  0  0  0  0  0  0
    3.2480    1.1856    8.8037 C   0  0  0  0  0  0  0  0  0  0  0  0
    3.4602    2.3592    8.1673 C   0  0  0  0  0  0  0  0  0  0  0  0
    3.3297    2.5176    6.6759 C   0  0  0  0  0  0  0  0  0  0  0  0
    3.8891    3.6094    8.9077 C   0  0  3  0  0  0  0  0  0  0  0  0
    2.8983    4.6009    8.7089 O   0  0  0  0  0  0  0  0  0  0  0  0
    3.0247    5.7291    9.4484 C   0  0  0  0  0  0  0  0  0  0  0  0
    2.3401    6.7610    9.1422 N   0  0  0  0  0  0  0  0  0  0  0  0
    3.8673    5.7414   10.5029 O   0  0  0  0  0  0  0  0  0  0  0  0
    4.3037    4.6024   11.0648 C   0  0  0  0  0  0  0  0  0  0  0  0
    4.9818    4.5509   12.0787 O   0  0  0  0  0  0  0  0  0  0  0  0
    3.9720    3.3713   10.3538 C   0  0  0  0  0  0  0  0  0  0  0  0
    3.7629    2.1812   10.9506 C   0  0  0  0  0  0  0  0  0  0  0  0
    3.4147    1.0784   10.1780 O   0  3  0  0  0  0  0  0  0  0  0  0
    3.8006    1.9432   12.4178 C   0  0  0  0  0  0  0  0  0  0  0  0
    2.5876    1.9327   13.1813 O   0  0  0  0  0  0  0  0  0  0  0  0
    3.2963    0.7015   12.9494 O   0  0  0  0  0  0  0  0  0  0  0  0
    2.2857   -1.1351    5.9882 C   0  0  0  0  0  0  0  0  0  0  0  0
    0.9167   -1.3407    5.7664 C   0  0  0  0  0  0  0  0  0  0  0  0
    0.5046   -2.4117    5.0817 N   0  3  0  0  0  0  0  0  0  0  0  0
   -0.8163   -2.6067    4.8856 F   0  0  0  0  0  0  0  0  0  0  0  0
    1.3501   -3.2984    4.5964 N   0  0  0  0  0  0  0  0  0  0  0  0
    2.6721   -3.1143    4.7698 C   0  0  0  0  0  0  0  0  0  0  0  0
    3.1887   -2.0315    5.4702 N   0  3  0  0  0  0  0  0  0  0  0  0
    4.5422   -1.9070    5.6104 C   0  0  0  0  0  0  0  0  0  0  0  0
    5.4203   -2.8524    5.0842 C   0  0  0  0  0  0  0  0  0  0  0  0
    6.8524   -2.7133    5.3206 C   0  0  0  0  0  0  0  0  0  0  0  0
    7.2309   -1.8012    6.0346 O   0  0  0  0  0  0  0  0  0  0  0  0
    7.7557   -3.7644    4.7080 C   0  0  0  0  0  0  0  0  0  0  0  0
    8.8730   -3.9476    5.1564 O   0  0  0  0  0  0  0  0  0  0  0  0
    7.1208   -4.5206    3.5588 C   0  0  1  0  0  0  0  0  0  0  0  0
    5.7456   -4.8869    3.8292 O   0  0  0  0  0  0  0  0  0  0  0  0
    4.9448   -3.9301    4.3785 C   0  0  0  0  0  0  0  0  0  0  0  0
    3.5682   -4.0535    4.2428 C   0  0  0  0  0  0  0  0  0  0  0  0
    3.0711   -5.1104    3.5854 F   0  0  0  0  0  0  0  0  0  0  0  0
    7.1910   -3.7292    2.2948 C   0  0  1  0  0  0  0  0  0  0  0  0
    6.5480   -2.4202    2.3104 O   0  0  0  0  0  0  0  0  0  0  0  0
    8.3973   -3.8187    1.5606 O   0  0  0  0  0  0  0  0  0  0  0  0
    7.3065   -4.3495    0.9652 C   0  0  0  0  0  0  0  0  0  0  0  0
    6.7049   -4.0095   -0.0277 O   0  0  0  0  0  0  0  0  0  0  0  0
    3.5112    1.6291    2.3605 C   0  0  0  0  0  0  0  0  0  0  0  0
    2.7082    0.7465    2.0392 O   0  0  0  0  0  0  0  0  0  0  0  0
    4.4806    2.2917    1.3935 C   0  0  3  0  0  0  0  0  0  0  0  0
    5.5060    3.1432    2.1160 C   0  0  0  0  0  0  0  0  0  0  0  0
    6.0214    4.1404    1.6263 O   0  0  0  0  0  0  0  0  0  0  0  0
    5.1038    1.3348    0.6446 F   0  0  0  0  0  0  0  0  0  0  0  0
  1  2  1  0  0  0  0
  2  3  2  0  0  0  0
  3  4  1  0  0  0  0
  3 52  1  0  0  0  0
  4  5  1  0  0  0  0
  5  6  1  1  0  0  0
  5 49  1  0  0  0  0
  6  7  1  0  0  0  0
  7  8  2  0  0  0  0
  7 12  1  0  0  0  0
  8  9  1  0  0  0  0
  8 26  1  0  0  0  0
  9 10  1  0  0  0  0
 10 11  2  0  0  0  0
 10 22  1  0  0  0  0
 11 12  1  0  0  0  0
 11 13  1  0  0  0  0
 13 14  1  0  0  0  0
 13 20  1  0  0  0  0
 14 15  1  0  0  0  0
 15 16  2  0  0  0  0
 15 17  1  0  0  0  0
 17 18  1  0  0  0  0
 18 19  2  0  0  0  0
 18 20  1  0  0  0  0
 20 21  2  0  0  0  0
 21 22  1  0  0  0  0
 21 23  1  0  0  0  0
 23 24  1  0  0  0  0
 23 25  1  0  0  0  0
 24 25  1  0  0  0  0
 26 27  2  0  0  0  0
 26 32  1  0  0  0  0
 27 28  1  0  0  0  0
 28 29  1  0  0  0  0
 28 30  2  0  0  0  0
 30 31  1  0  0  0  0
 31 32  2  0  0  0  0
 31 42  1  0  0  0  0
 32 33  1  0  0  0  0
 33 34  2  0  0  0  0
 34 35  1  0  0  0  0
 34 41  1  0  0  0  0
 35 36  2  0  0  0  0
 35 37  1  0  0  0  0
 37 38  2  0  0  0  0
 39 37  1  1  0  0  0
 39 40  1  0  0  0  0
 39 44  1  0  0  0  0
 40 41  1  0  0  0  0
 41 42  2  0  0  0  0
 42 43  1  0  0  0  0
 44 45  1  1  0  0  0
 44 46  1  0  0  0  0
 44 47  1  0  0  0  0
 46 47  1  0  0  0  0
 47 48  2  0  0  0  0
 49 50  2  0  0  0  0
 49 51  1  0  0  0  0
 51 52  1  0  0  0  0
 51 54  1  0  0  0  0
 52 53  2  0  0  0  0
M  CHG  3  22   1  28   1  32   1
M  END
$$$$