
 OpenBabel11212001413D

 53 61  0  0  1  0  0  0  0  0999 V2000
   -1.7666    1.3942   -6.1592 O   0  0  0  0  0  0  0  0  0  0  0  0
   -1.5353    1.5107   -4.8124 C   0  0  0  0  0  0  0  0  0  0  0  0
   -0.8198    0.6390   -4.0933 C   0  0  0  0  0  0  0  0  0  0  0  0
   -0.2747   -0.4790   -4.6931 O   0  0  0  0  0  0  0  0  0  0  0  0
    0.9453   -0.8984   -4.0744 C   0  0  2  0  0  0  0  0  0  0  0  0
    1.5400   -1.9768   -4.8123 O   0  0  0  0  0  0  0  0  0  0  0  0
    1.8551   -1.7244   -6.1463 C   0  0  0  0  0  0  0  0  0  0  0  0
    1.8553   -2.7126   -7.0711 C   0  0  0  0  0  0  0  0  0  0  0  0
    2.1863   -2.5019   -8.4089 O   0  0  0  0  0  0  0  0  0  0  0  0
    2.4597   -1.2126   -8.8459 C   0  0  0  0  0  0  0  0  0  0  0  0
    2.5054   -0.1679   -8.0030 C   0  0  0  0  0  0  0  0  0  0  0  0
    2.2613   -0.3226   -6.5403 C   0  0  0  0  0  0  0  0  0  0  0  0
    2.7265    1.2324   -8.5187 C   0  0  3  0  0  0  0  0  0  0  0  0
    3.8796    1.7627   -7.8735 O   0  0  0  0  0  0  0  0  0  0  0  0
    4.4268    2.9282   -8.3013 C   0  0  0  0  0  0  0  0  0  0  0  0
    5.2594    3.5201   -7.6268 O   0  0  0  0  0  0  0  0  0  0  0  0
    4.0359    3.3992   -9.5106 O   0  0  0  0  0  0  0  0  0  0  0  0
    3.1361    2.7229  -10.3797 C   0  0  3  0  0  0  0  0  0  0  0  0
    2.9280    1.3149   -9.9877 C   0  0  0  0  0  0  0  0  0  0  0  0
    2.8969    0.2186  -10.7789 C   0  0  0  0  0  0  0  0  0  0  0  0
    2.6593   -1.0177  -10.1906 N   0  0  0  0  0  0  0  0  0  0  0  0
    3.0732    0.2368  -12.2502 C   0  0  0  0  0  0  0  0  0  0  0  0
    4.3708    0.1190  -12.8544 O   0  0  0  0  0  0  0  0  0  0  0  0
    3.4095   -0.9449  -12.9981 O   0  0  0  0  0  0  0  0  0  0  0  0
    1.8738    3.3693  -10.3209 O   0  0  0  0  0  0  0  0  0  0  0  0
    1.5401   -4.1207   -6.7530 C   0  0  0  0  0  0  0  0  0  0  0  0
    2.5841   -4.9522   -6.3793 C   0  0  0  0  0  0  0  0  0  0  0  0
    2.4003   -6.2327   -6.0188 N   0  0  0  0  0  0  0  0  0  0  0  0
    1.1311   -6.7392   -5.9742 N   0  0  0  0  0  0  0  0  0  0  0  0
    0.0646   -5.9992   -6.3282 C   0  0  0  0  0  0  0  0  0  0  0  0
    0.2343   -4.6704   -6.7782 C   0  0  0  0  0  0  0  0  0  0  0  0
   -0.9018   -3.9668   -7.2461 C   0  0  0  0  0  0  0  0  0  0  0  0
   -2.1800   -4.5385   -7.1975 C   0  0  0  0  0  0  0  0  0  0  0  0
   -3.3294   -3.8364   -7.7809 C   0  0  0  0  0  0  0  0  0  0  0  0
   -3.1937   -2.8112   -8.4294 O   0  0  0  0  0  0  0  0  0  0  0  0
   -4.6878   -4.4706   -7.5785 C   0  0  0  0  0  0  0  0  0  0  0  0
   -5.6622   -4.1054   -8.2207 O   0  0  0  0  0  0  0  0  0  0  0  0
   -4.7284   -5.5211   -6.4937 C   0  0  1  0  0  0  0  0  0  0  0  0
   -3.5856   -6.3891   -6.4530 O   0  0  0  0  0  0  0  0  0  0  0  0
   -2.3658   -5.7916   -6.6391 C   0  0  0  0  0  0  0  0  0  0  0  0
   -1.2373   -6.5225   -6.2542 C   0  0  0  0  0  0  0  0  0  0  0  0
   -1.4196   -7.8056   -5.7821 O   0  0  0  0  0  0  0  0  0  0  0  0
   -4.9816   -4.8928   -5.1579 C   0  0  1  0  0  0  0  0  0  0  0  0
   -4.0126   -3.9145   -4.7073 O   0  0  0  0  0  0  0  0  0  0  0  0
   -6.3504   -4.5572   -4.9192 O   0  0  0  0  0  0  0  0  0  0  0  0
   -5.8109   -5.4901   -4.1100 C   0  0  0  0  0  0  0  0  0  0  0  0
   -5.6755   -5.4815   -2.9090 O   0  0  0  0  0  0  0  0  0  0  0  0
    0.6488   -1.3046   -2.6257 C   0  0  0  0  0  0  0  0  0  0  0  0
    1.0766   -2.3422   -2.1169 O   0  0  0  0  0  0  0  0  0  0  0  0
   -0.1416   -0.2964   -1.8195 C   0  0  3  0  0  0  0  0  0  0  0  0
   -0.6480    0.8741   -2.6273 C   0  0  0  0  0  0  0  0  0  0  0  0
   -0.9359    1.9533   -2.1140 O   0  0  0  0  0  0  0  0  0  0  0  0
   -1.1738   -0.8984   -1.1551 F   0  0  0  0  0  0  0  0  0  0  0  0
  1  2  1  0  0  0  0
  2  3  2  0  0  0  0
  3  4  1  0  0  0  0
  3 51  1  0  0  0  0
  4  5  1  0  0  0  0
  5  6  1  6  0  0  0
  5 48  1  0  0  0  0
  6  7  1  0  0  0  0
  7  8  2  0  0  0  0
  7 12  1  0  0  0  0
  8  9  1  0  0  0  0
  8 26  1  0  0  0  0
  9 10  1  0  0  0  0
 10 11  2  0  0  0  0
 10 21  1  0  0  0  0
 11 12  1  0  0  0  0
 11 13  1  0  0  0  0
 13 14  1  0  0  0  0
 13 19  1  0  0  0  0
 14 15  1  0  0  0  0
 15 16  2  0  0  0  0
 15 17  1  0  0  0  0
 17 18  1  0  0  0  0
 18 19  1  0  0  0  0
 18 25  1  0  0  0  0
 19 20  2  0  0  0  0
 20 21  1  0  0  0  0
 20 22  1  0  0  0  0
 22 23  1  0  0  0  0
 22 24  1  0  0  0  0
 23 24  1  0  0  0  0
 26 27  2  0  0  0  0
 26 31  1  0  0  0  0
 27 28  1  0  0  0  0
 28 29  2  0  0  0  0
 29 30  1  0  0  0  0
 30 31  2  0  0  0  0
 30 41  1  0  0  0  0
 31 32  1  0  0  0  0
 32 33  2  0  0  0  0
 33 34  1  0  0  0  0
 33 40  1  0  0  0  0
 34 35  2  0  0  0  0
 34 36  1  0  0  0  0
 36 37  2  0  0  0  0
 38 36  1  6  0  0  0
 38 39  1  0  0  0  0
 38 43  1  0  0  0  0
 39 40  1  0  0  0  0
 40 41  2  0  0  0  0
 41 42  1  0  0  0  0
 43 44  1  1  0  0  0
 43 45  1  0  0  0  0
 43 46  1  0  0  0  0
 45 46  1  0  0  0  0
 46 47  2  0  0  0  0
 48 49  2  0  0  0  0
 48 50  1  0  0  0  0
 50 51  1  0  0  0  0
 50 53  1  0  0  0  0
 51 52  2  0  0  0  0
M  END
$$$$