
 OpenBabel11212022373D

 54 62  0  0  1  0  0  0  0  0999 V2000
    0.1778   -4.7896   -3.2446 O   0  0  0  0  0  0  0  0  0  0  0  0
    0.4066   -3.4443   -3.0876 C   0  0  0  0  0  0  0  0  0  0  0  0
    0.7721   -2.9121   -1.9171 C   0  0  0  0  0  0  0  0  0  0  0  0
    0.8904   -3.7270   -0.8037 O   0  0  0  0  0  0  0  0  0  0  0  0
    1.9217   -3.3430    0.0913 C   0  0  2  0  0  0  0  0  0  0  0  0
    1.9978   -4.2560    1.1948 O   0  0  0  0  0  0  0  0  0  0  0  0
    2.2129   -5.6004    0.9349 C   0  0  0  0  0  0  0  0  0  0  0  0
    1.7561   -6.5539    1.7803 C   0  0  0  0  0  0  0  0  0  0  0  0
    1.9719   -7.9128    1.5272 O   0  0  0  0  0  0  0  0  0  0  0  0
    2.6854   -8.3329    0.4116 C   0  0  0  0  0  0  0  0  0  0  0  0
    3.2700   -7.4406   -0.4037 C   0  0  0  0  0  0  0  0  0  0  0  0
    3.0614   -5.9649   -0.2556 C   0  0  0  0  0  0  0  0  0  0  0  0
    4.1728   -7.8623   -1.5225 C   0  0  3  0  0  0  0  0  0  0  0  0
    5.4755   -7.4362   -1.1628 O   0  0  0  0  0  0  0  0  0  0  0  0
    6.5180   -7.8043   -1.9537 C   0  0  0  0  0  0  0  0  0  0  0  0
    7.6112   -7.2750   -1.8414 O   0  0  0  0  0  0  0  0  0  0  0  0
    6.2710   -8.7887   -2.8501 O   0  0  0  0  0  0  0  0  0  0  0  0
    5.1535   -9.6679   -2.7787 C   0  0  3  0  0  0  0  0  0  0  0  0
    4.2356   -9.3330   -1.6611 C   0  0  0  0  0  0  0  0  0  0  0  0
    3.5619  -10.1822   -0.8537 C   0  0  0  0  0  0  0  0  0  0  0  0
    2.7942   -9.6896    0.1925 O   0  3  0  0  0  0  0  0  0  0  0  0
    3.6107  -11.6565   -0.9794 C   0  0  0  0  0  0  0  0  0  0  0  0
    4.5834  -12.4233   -0.2599 O   0  0  0  0  0  0  0  0  0  0  0  0
    3.1941  -12.4922    0.1148 O   0  0  0  0  0  0  0  0  0  0  0  0
    4.3775   -9.5173   -3.9500 O   0  0  0  0  0  0  0  0  0  0  0  0
    1.0176   -6.2547    3.0681 C   0  0  0  0  0  0  0  0  0  0  0  0
    1.3871   -5.0789    3.7481 C   0  0  0  0  0  0  0  0  0  0  0  0
    0.8611   -4.5912    4.8677 N   0  3  0  0  0  0  0  0  0  0  0  0
    1.3502   -3.4220    5.3299 F   0  0  0  0  0  0  0  0  0  0  0  0
   -0.3314   -5.2895    5.7205 S   0  3  0  0  0  0  0  0  0  0  0  0
   -0.6500   -6.8017    4.8142 C   0  0  0  0  0  0  0  0  0  0  0  0
    0.0236   -7.1308    3.6173 C   0  0  0  0  0  0  0  0  0  0  0  0
   -0.3685   -8.3658    3.0390 C   0  0  0  0  0  0  0  0  0  0  0  0
   -1.3355   -9.2133    3.6046 C   0  0  0  0  0  0  0  0  0  0  0  0
   -1.6351  -10.4957    2.9641 C   0  0  0  0  0  0  0  0  0  0  0  0
   -0.9785  -10.8722    2.0025 O   0  0  0  0  0  0  0  0  0  0  0  0
   -2.7340  -11.3219    3.5942 C   0  0  0  0  0  0  0  0  0  0  0  0
   -2.7907  -12.5222    3.3764 O   0  0  0  0  0  0  0  0  0  0  0  0
   -3.6777  -10.5378    4.4837 C   0  0  1  0  0  0  0  0  0  0  0  0
   -3.0039   -9.5779    5.3212 O   0  0  0  0  0  0  0  0  0  0  0  0
   -1.9982   -8.8521    4.7554 C   0  0  0  0  0  0  0  0  0  0  0  0
   -1.6394   -7.6509    5.3578 C   0  0  0  0  0  0  0  0  0  0  0  0
   -2.2741   -7.2813    6.4805 F   0  0  0  0  0  0  0  0  0  0  0  0
   -4.8300   -9.9430    3.7078 C   0  0  1  0  0  0  0  0  0  0  0  0
   -5.6587  -10.8738    2.9896 O   0  0  0  0  0  0  0  0  0  0  0  0
   -5.5428   -8.8779    4.3623 O   0  0  0  0  0  0  0  0  0  0  0  0
   -4.8779   -8.5700    3.2451 C   0  0  0  0  0  0  0  0  0  0  0  0
   -3.9933   -7.7593    3.0113 O   0  0  0  0  0  0  0  0  0  0  0  0
    1.5771   -1.9703    0.6277 C   0  0  0  0  0  0  0  0  0  0  0  0
    1.3332   -1.6977    1.7940 O   0  0  0  0  0  0  0  0  0  0  0  0
    1.5186   -0.9618   -0.4890 C   0  0  0  0  0  0  0  0  0  0  0  0
    1.9760    0.1538   -0.3200 O   0  0  0  0  0  0  0  0  0  0  0  0
    1.0084   -1.4352   -1.8413 C   0  0  0  0  0  0  0  0  0  0  0  0
    0.8423   -0.6715   -2.7746 O   0  0  0  0  0  0  0  0  0  0  0  0
  1  2  1  0  0  0  0
  2  3  2  0  0  0  0
  3  4  1  0  0  0  0
  3 53  1  0  0  0  0
  4  5  1  0  0  0  0
  5  6  1  1  0  0  0
  5 49  1  0  0  0  0
  6  7  1  0  0  0  0
  7  8  2  0  0  0  0
  7 12  1  0  0  0  0
  8  9  1  0  0  0  0
  8 26  1  0  0  0  0
  9 10  1  0  0  0  0
 10 11  2  0  0  0  0
 10 21  1  0  0  0  0
 11 12  1  0  0  0  0
 11 13  1  0  0  0  0
 13 14  1  0  0  0  0
 13 19  1  0  0  0  0
 14 15  1  0  0  0  0
 15 16  2  0  0  0  0
 15 17  1  0  0  0  0
 17 18  1  0  0  0  0
 18 19  1  0  0  0  0
 18 25  1  0  0  0  0
 19 20  2  0  0  0  0
 20 21  1  0  0  0  0
 20 22  1  0  0  0  0
 22 23  1  0  0  0  0
 22 24  1  0  0  0  0
 23 24  1  0  0  0  0
 26 27  2  0  0  0  0
 26 32  1  0  0  0  0
 27 28  1  0  0  0  0
 28 29  1  0  0  0  0
 28 30  2  0  0  0  0
 30 31  1  0  0  0  0
 31 32  2  0  0  0  0
 31 42  1  0  0  0  0
 32 33  1  0  0  0  0
 33 34  2  0  0  0  0
 34 35  1  0  0  0  0
 34 41  1  0  0  0  0
 35 36  2  0  0  0  0
 35 37  1  0  0  0  0
 37 38  2  0  0  0  0
 39 37  1  6  0  0  0
 39 40  1  0  0  0  0
 39 44  1  0  0  0  0
 40 41  1  0  0  0  0
 41 42  2  0  0  0  0
 42 43  1  0  0  0  0
 44 45  1  6  0  0  0
 44 46  1  0  0  0  0
 44 47  1  0  0  0  0
 46 47  1  0  0  0  0
 47 48  2  0  0  0  0
 49 50  2  0  0  0  0
 49 51  1  0  0  0  0
 51 52  2  0  0  0  0
 51 53  1  0  0  0  0
 53 54  2  0  0  0  0
M  CHG  3  21   1  28   1  30   1
M  END
$$$$