
 OpenBabel09222020113D

 51 59  0  0  1  0  0  0  0  0999 V2000
   -0.0417   -4.6980    3.2279 O   0  0  0  0  0  0  0  0  0  0  0  0
    0.4849   -4.1419    2.0907 C   0  0  0  0  0  0  0  0  0  0  0  0
    0.8810   -2.8641    2.0143 C   0  0  0  0  0  0  0  0  0  0  0  0
    0.7464   -1.9913    3.0823 O   0  0  0  0  0  0  0  0  0  0  0  0
    1.8487   -1.0792    3.2318 C   0  0  2  0  0  0  0  0  0  0  0  0
    1.8419   -0.3910    4.5040 O   0  0  0  0  0  0  0  0  0  0  0  0
    1.9821   -1.1569    5.6684 C   0  0  0  0  0  0  0  0  0  0  0  0
    2.1421   -0.6077    6.8981 C   0  0  0  0  0  0  0  0  0  0  0  0
    2.2434   -1.3603    8.0707 O   0  0  0  0  0  0  0  0  0  0  0  0
    2.2563   -2.7397    8.0009 C   0  0  0  0  0  0  0  0  0  0  0  0
    2.1207   -3.4112    6.8067 C   0  0  0  0  0  0  0  0  0  0  0  0
    1.9280   -2.6528    5.5435 C   0  0  0  0  0  0  0  0  0  0  0  0
    2.1438   -4.8076    6.8343 C   0  0  0  0  0  0  0  0  0  0  0  0
    1.9923   -5.5450    5.6505 N   0  0  0  0  0  0  0  0  0  0  0  0
    1.8935   -6.8964    5.5860 C   0  0  0  0  0  0  0  0  0  0  0  0
    1.6885   -7.4683    4.5197 O   0  0  0  0  0  0  0  0  0  0  0  0
    1.9989   -7.5755    6.7500 N   0  0  0  0  0  0  0  0  0  0  0  0
    2.3588   -6.9895    8.0184 C   0  0  0  0  0  0  0  0  0  0  0  0
    2.3098   -5.4916    8.0369 C   0  0  0  0  0  0  0  0  0  0  0  0
    2.4699   -4.7412    9.2116 C   0  0  0  0  0  0  0  0  0  0  0  0
    2.4439   -3.3749    9.1767 N   0  0  0  0  0  0  0  0  0  0  0  0
    2.7404   -5.3741   10.5585 C   0  0  0  0  0  0  0  0  0  0  0  0
    1.7839   -5.1259   11.6026 O   0  0  0  0  0  0  0  0  0  0  0  0
    1.8936   -6.4372   11.0205 O   0  0  0  0  0  0  0  0  0  0  0  0
    2.2169    0.8523    7.1533 C   0  0  0  0  0  0  0  0  0  0  0  0
    1.0315    1.4343    7.4243 N   0  0  0  0  0  0  0  0  0  0  0  0
    1.0539    2.7599    7.5854 C   0  0  0  0  0  0  0  0  0  0  0  0
    2.1345    3.5391    7.5350 N   0  0  0  0  0  0  0  0  0  0  0  0
    3.2999    2.9590    7.3176 C   0  0  0  0  0  0  0  0  0  0  0  0
    3.4235    1.5774    7.1200 C   0  0  0  0  0  0  0  0  0  0  0  0
    4.7245    1.0550    6.9130 C   0  0  0  0  0  0  0  0  0  0  0  0
    5.8178    1.9194    6.9247 C   0  0  0  0  0  0  0  0  0  0  0  0
    5.5920    3.2619    7.1278 C   0  0  0  0  0  0  0  0  0  0  0  0
    4.3603    3.7694    7.3000 N   0  0  0  0  0  0  0  0  0  0  0  0
    6.5818    4.2021    7.1778 O   0  0  0  0  0  0  0  0  0  0  0  0
    7.8650    3.7358    7.6046 C   0  0  2  0  0  0  0  0  0  0  0  0
    8.2943    2.4650    6.9172 C   0  0  0  0  0  0  0  0  0  0  0  0
    9.4358    2.2201    6.5553 O   0  0  0  0  0  0  0  0  0  0  0  0
    7.1893    1.4434    6.7545 C   0  0  0  0  0  0  0  0  0  0  0  0
    7.4326    0.2719    6.5132 O   0  0  0  0  0  0  0  0  0  0  0  0
    7.9253    3.6147    9.1026 C   0  0  1  0  0  0  0  0  0  0  0  0
    6.9796    2.7165    9.7256 O   0  0  0  0  0  0  0  0  0  0  0  0
    9.2253    3.5636    9.6846 O   0  0  0  0  0  0  0  0  0  0  0  0
    8.5103    4.6746    9.9034 C   0  0  0  0  0  0  0  0  0  0  0  0
    8.7915    5.8388    9.6591 O   0  0  0  0  0  0  0  0  0  0  0  0
    1.7778   -0.1394    2.0332 C   0  0  0  0  0  0  0  0  0  0  0  0
    1.7926    1.0809    2.0645 O   0  0  0  0  0  0  0  0  0  0  0  0
    1.7276   -0.8931    0.7150 C   0  0  0  0  0  0  0  0  0  0  0  0
    1.9245   -0.3185   -0.3437 O   0  0  0  0  0  0  0  0  0  0  0  0
    1.4588   -2.3861    0.7301 C   0  0  0  0  0  0  0  0  0  0  0  0
    1.7466   -3.1119   -0.2061 O   0  0  0  0  0  0  0  0  0  0  0  0
  1  2  1  0  0  0  0
  2  3  2  0  0  0  0
  3  4  1  0  0  0  0
  3 50  1  0  0  0  0
  4  5  1  0  0  0  0
  5  6  1  1  0  0  0
  5 46  1  0  0  0  0
  6  7  1  0  0  0  0
  7  8  2  0  0  0  0
  7 12  1  0  0  0  0
  8  9  1  0  0  0  0
  8 25  1  0  0  0  0
  9 10  1  0  0  0  0
 10 11  2  0  0  0  0
 10 21  1  0  0  0  0
 11 12  1  0  0  0  0
 11 13  1  0  0  0  0
 13 14  1  0  0  0  0
 13 19  2  0  0  0  0
 14 15  1  0  0  0  0
 15 16  2  0  0  0  0
 15 17  1  0  0  0  0
 17 18  1  0  0  0  0
 18 19  1  0  0  0  0
 19 20  1  0  0  0  0
 20 21  2  0  0  0  0
 20 22  1  0  0  0  0
 22 23  1  0  0  0  0
 22 24  1  0  0  0  0
 23 24  1  0  0  0  0
 25 26  2  0  0  0  0
 25 30  1  0  0  0  0
 26 27  1  0  0  0  0
 27 28  2  0  0  0  0
 28 29  1  0  0  0  0
 29 30  2  0  0  0  0
 29 34  1  0  0  0  0
 30 31  1  0  0  0  0
 31 32  2  0  0  0  0
 32 33  1  0  0  0  0
 32 39  1  0  0  0  0
 33 34  2  0  0  0  0
 33 35  1  0  0  0  0
 36 35  1  1  0  0  0
 36 37  1  0  0  0  0
 36 41  1  0  0  0  0
 37 38  2  0  0  0  0
 37 39  1  0  0  0  0
 39 40  2  0  0  0  0
 41 42  1  1  0  0  0
 41 43  1  0  0  0  0
 41 44  1  0  0  0  0
 43 44  1  0  0  0  0
 44 45  2  0  0  0  0
 46 47  2  0  0  0  0
 46 48  1  0  0  0  0
 48 49  2  0  0  0  0
 48 50  1  0  0  0  0
 50 51  2  0  0  0  0
M  END
$$$$