
 OpenBabel11232014513D

 54 62  0  0  1  0  0  0  0  0999 V2000
   -1.4919    1.7592   -1.7954 O   0  0  0  0  0  0  0  0  0  0  0  0
   -1.1201    2.0846   -3.0738 C   0  0  0  0  0  0  0  0  0  0  0  0
   -0.0609    2.8554   -3.3565 C   0  0  0  0  0  0  0  0  0  0  0  0
    0.7028    3.4322   -2.3504 O   0  0  0  0  0  0  0  0  0  0  0  0
    2.0879    3.5625   -2.6424 C   0  0  2  0  0  0  0  0  0  0  0  0
    2.7793    4.0767   -1.4800 O   0  0  0  0  0  0  0  0  0  0  0  0
    2.8975    5.4374   -1.2291 C   0  0  0  0  0  0  0  0  0  0  0  0
    3.9742    5.9215   -0.5616 C   0  0  0  0  0  0  0  0  0  0  0  0
    4.1833    7.3007   -0.3982 O   0  0  0  0  0  0  0  0  0  0  0  0
    3.2577    8.2195   -0.9074 C   0  0  0  0  0  0  0  0  0  0  0  0
    2.0938    7.8081   -1.4369 C   0  0  0  0  0  0  0  0  0  0  0  0
    1.7640    6.3510   -1.6227 C   0  0  0  0  0  0  0  0  0  0  0  0
    1.0451    8.7601   -1.9107 C   0  0  3  0  0  0  0  0  0  0  0  0
   -0.1176    8.5269   -1.1528 O   0  0  0  0  0  0  0  0  0  0  0  0
   -1.2070    9.2657   -1.5004 C   0  0  0  0  0  0  0  0  0  0  0  0
   -2.3362    8.8687   -1.2894 O   0  0  0  0  0  0  0  0  0  0  0  0
   -0.9343   10.4982   -2.0181 O   0  0  0  0  0  0  0  0  0  0  0  0
    0.2886   11.0263   -1.9373 C   0  0  0  0  0  0  0  0  0  0  0  0
    0.5705   12.2102   -2.1193 O   0  0  0  0  0  0  0  0  0  0  0  0
    1.4341   10.1651   -1.6418 C   0  0  0  0  0  0  0  0  0  0  0  0
    2.6499   10.5905   -1.1779 C   0  0  0  0  0  0  0  0  0  0  0  0
    3.5852    9.5698   -0.8153 O   0  3  0  0  0  0  0  0  0  0  0  0
    3.0367   12.0535   -0.8955 C   0  0  0  0  0  0  0  0  0  0  0  0
    2.4926   13.2796   -1.6226 N   0  3  0  0  0  0  0  0  0  0  0  0
    3.4723   12.9710   -2.0327 N   0  3  0  0  0  0  0  0  0  0  0  0
    4.9495    5.0153    0.1460 C   0  0  0  0  0  0  0  0  0  0  0  0
    4.4222    3.8644    0.7507 C   0  0  0  0  0  0  0  0  0  0  0  0
    5.1857    3.0086    1.4296 N   0  3  0  0  0  0  0  0  0  0  0  0
    4.6182    1.9191    1.9816 F   0  0  0  0  0  0  0  0  0  0  0  0
    6.4684    3.2015    1.5986 N   0  0  0  0  0  0  0  0  0  0  0  0
    7.0559    4.2804    1.0818 C   0  0  0  0  0  0  0  0  0  0  0  0
    6.3388    5.2457    0.3362 C   0  0  0  0  0  0  0  0  0  0  0  0
    7.0713    6.3582   -0.1499 C   0  0  0  0  0  0  0  0  0  0  0  0
    8.4461    6.5154    0.1209 C   0  0  0  0  0  0  0  0  0  0  0  0
    9.1340    7.7359   -0.2950 C   0  0  0  0  0  0  0  0  0  0  0  0
    8.4895    8.6449   -0.8076 O   0  0  0  0  0  0  0  0  0  0  0  0
   10.5989    7.8596    0.0680 C   0  0  0  0  0  0  0  0  0  0  0  0
   11.1049    8.9717    0.0909 O   0  0  0  0  0  0  0  0  0  0  0  0
   11.2943    6.5572    0.4235 C   0  0  1  0  0  0  0  0  0  0  0  0
   10.4689    5.6134    1.1365 O   0  0  0  0  0  0  0  0  0  0  0  0
    9.1387    5.5622    0.8369 C   0  0  0  0  0  0  0  0  0  0  0  0
    8.4267    4.4579    1.3039 C   0  0  0  0  0  0  0  0  0  0  0  0
    9.0888    3.4929    2.0255 O   0  0  0  0  0  0  0  0  0  0  0  0
   11.9842    5.9393   -0.7683 C   0  0  1  0  0  0  0  0  0  0  0  0
   13.0131    6.7267   -1.3896 O   0  0  0  0  0  0  0  0  0  0  0  0
   12.2280    4.5311   -0.6995 O   0  0  0  0  0  0  0  0  0  0  0  0
   11.3442    4.9400   -1.6129 C   0  0  0  0  0  0  0  0  0  0  0  0
   10.1608    4.6922   -1.7571 O   0  0  0  0  0  0  0  0  0  0  0  0
    2.3465    4.3262   -3.9377 C   0  0  0  0  0  0  0  0  0  0  0  0
    3.0745    5.3081   -4.0521 O   0  0  0  0  0  0  0  0  0  0  0  0
    1.5043    3.8472   -5.0781 C   0  0  0  0  0  0  0  0  0  0  0  0
    1.8800    4.0949   -6.2108 O   0  0  0  0  0  0  0  0  0  0  0  0
    0.1980    3.1400   -4.7989 C   0  0  0  0  0  0  0  0  0  0  0  0
   -0.5850    2.8929   -5.6977 O   0  0  0  0  0  0  0  0  0  0  0  0
  1  2  1  0  0  0  0
  2  3  2  0  0  0  0
  3  4  1  0  0  0  0
  3 53  1  0  0  0  0
  4  5  1  0  0  0  0
  5  6  1  1  0  0  0
  5 49  1  0  0  0  0
  6  7  1  0  0  0  0
  7  8  2  0  0  0  0
  7 12  1  0  0  0  0
  8  9  1  0  0  0  0
  8 26  1  0  0  0  0
  9 10  1  0  0  0  0
 10 11  2  0  0  0  0
 10 22  1  0  0  0  0
 11 12  1  0  0  0  0
 11 13  1  0  0  0  0
 13 14  1  0  0  0  0
 13 20  1  0  0  0  0
 14 15  1  0  0  0  0
 15 16  2  0  0  0  0
 15 17  1  0  0  0  0
 17 18  1  0  0  0  0
 18 19  2  0  0  0  0
 18 20  1  0  0  0  0
 20 21  2  0  0  0  0
 21 22  1  0  0  0  0
 21 23  1  0  0  0  0
 23 24  1  0  0  0  0
 23 25  1  0  0  0  0
 24 25  3  0  0  0  0
 26 27  2  0  0  0  0
 26 32  1  0  0  0  0
 27 28  1  0  0  0  0
 28 29  1  0  0  0  0
 28 30  2  0  0  0  0
 30 31  1  0  0  0  0
 31 32  2  0  0  0  0
 31 42  1  0  0  0  0
 32 33  1  0  0  0  0
 33 34  2  0  0  0  0
 34 35  1  0  0  0  0
 34 41  1  0  0  0  0
 35 36  2  0  0  0  0
 35 37  1  0  0  0  0
 37 38  2  0  0  0  0
 39 37  1  6  0  0  0
 39 40  1  0  0  0  0
 39 44  1  0  0  0  0
 40 41  1  0  0  0  0
 41 42  2  0  0  0  0
 42 43  1  0  0  0  0
 44 45  1  6  0  0  0
 44 46  1  0  0  0  0
 44 47  1  0  0  0  0
 46 47  1  0  0  0  0
 47 48  2  0  0  0  0
 49 50  2  0  0  0  0
 49 51  1  0  0  0  0
 51 52  2  0  0  0  0
 51 53  1  0  0  0  0
 53 54  2  0  0  0  0
M  CHG  4  22   1  24   1  25   1  28   1
M  END
$$$$