
 OpenBabel09232003543D

 55 63  0  0  1  0  0  0  0  0999 V2000
  -10.2910   16.7260   68.2640 C   0  0  0  0  0  0  0  0  0  0  0  0
  -10.0980   15.4960   67.7230 C   0  0  0  0  0  0  0  0  0  0  0  0
  -10.7460   14.2980   68.3560 C   0  0  0  0  0  0  0  0  0  0  0  0
  -11.4790   14.5640   69.6180 C   0  0  0  0  0  0  0  0  0  0  0  0
  -11.6280   15.8540   70.0670 C   0  0  0  0  0  0  0  0  0  0  0  0
  -11.1620   16.9250   69.3410 O   0  0  0  0  0  0  0  0  0  0  0  0
  -12.2300   16.1690   71.2340 N   0  0  0  0  0  0  0  0  0  0  0  0
  -12.7360   15.1630   72.0080 C   0  0  0  0  0  0  0  0  0  0  0  0
  -12.6840   13.8310   71.5830 C   0  0  0  0  0  0  0  0  0  0  0  0
  -12.0500   13.5460   70.3780 C   0  0  0  0  0  0  0  0  0  0  0  0
  -11.9920   12.2170   69.9450 N   0  0  0  0  0  0  0  0  0  0  0  0
  -12.5990   11.1750   70.5670 C   0  0  0  0  0  0  0  0  0  0  0  0
  -12.5510   10.0430   70.0970 O   0  0  0  0  0  0  0  0  0  0  0  0
  -13.2810   11.4500   71.7020 N   0  0  0  0  0  0  0  0  0  0  0  0
  -13.1800   12.6950   72.4250 C   0  0  0  0  0  0  0  0  0  0  0  0
   -9.6930   18.0090   67.7570 C   0  0  0  0  0  0  0  0  0  0  0  0
  -10.6050   18.9610   67.4290 N   0  0  0  0  0  0  0  0  0  0  0  0
  -10.1600   20.1760   67.0540 C   0  0  0  0  0  0  0  0  0  0  0  0
   -8.8260   20.5290   67.0140 C   0  0  0  0  0  0  0  0  0  0  0  0
   -7.8680   19.5810   67.3700 C   0  0  0  0  0  0  0  0  0  0  0  0
   -6.5040   19.9450   67.4050 C   0  0  0  0  0  0  0  0  0  0  0  0
   -8.2820   18.2690   67.7190 C   0  0  0  0  0  0  0  0  0  0  0  0
   -5.5310   19.0390   67.8190 C   0  0  0  0  0  0  0  0  0  0  0  0
   -4.2510   19.5060   67.9470 O   0  0  0  0  0  0  0  0  0  0  0  0
   -5.9040   17.7330   68.0840 C   0  0  0  0  0  0  0  0  0  0  0  0
   -3.4350   18.8220   68.9250 C   0  0  0  0  0  0  0  0  0  0  0  0
   -3.4930   17.3230   68.7190 C   0  0  0  0  0  0  0  0  0  0  0  0
   -4.8800   16.7680   68.4950 C   0  0  0  0  0  0  0  0  0  0  0  0
   -2.5240   16.5790   68.7580 O   0  0  0  0  0  0  0  0  0  0  0  0
   -5.1290   15.5900   68.6970 O   0  0  0  0  0  0  0  0  0  0  0  0
   -7.2450   17.3420   68.0070 C   0  0  0  0  0  0  0  0  0  0  0  0
   -3.8320   19.2830   70.3370 C   0  0  0  0  0  0  0  0  0  0  0  0
   -2.7970   19.2900   71.4750 C   0  0  0  0  0  0  0  0  0  0  0  0
   -3.2360   20.3110   72.4120 O   0  0  0  0  0  0  0  0  0  0  0  0
   -4.3810   20.9840   71.8800 C   0  0  0  0  0  0  0  0  0  0  0  0
   -4.3910   20.6970   70.3790 C   0  0  0  0  0  0  0  0  0  0  0  0
   -4.3330   22.3740   72.1410 O   0  0  0  0  0  0  0  0  0  0  0  0
   -3.5590   21.6310   69.6830 O   0  0  0  0  0  0  0  0  0  0  0  0
   -1.3270   19.5750   71.1580 C   0  0  0  0  0  0  0  0  0  0  0  0
   -0.5500   18.3820   71.2340 O   0  0  0  0  0  0  0  0  0  0  0  0
   -9.2230   15.2490   66.6670 O   0  0  0  0  0  0  0  0  0  0  0  0
   -9.6520   14.3370   65.6420 C   0  0  0  0  0  0  0  0  0  0  0  0
   -9.9730   13.0520   66.1780 O   0  0  0  0  0  0  0  0  0  0  0  0
  -10.2430   12.1200   65.1850 C   0  0  0  0  0  0  0  0  0  0  0  0
   -9.7800   10.8650   65.2390 C   0  0  0  0  0  0  0  0  0  0  0  0
  -11.0810   12.4990   64.0150 C   0  0  0  0  0  0  0  0  0  0  0  0
   -8.9910   10.4010   66.2560 O   0  0  0  0  0  0  0  0  0  0  0  0
  -11.2490   11.8210   63.0250 O   0  0  0  0  0  0  0  0  0  0  0  0
  -11.6490   13.8970   64.1490 C   0  0  0  0  0  0  0  0  0  0  0  0
  -12.7590   14.1550   63.7290 O   0  0  0  0  0  0  0  0  0  0  0  0
  -10.7930   14.9450   64.8260 C   0  0  0  0  0  0  0  0  0  0  0  0
  -10.9380   16.1320   64.5680 O   0  0  0  0  0  0  0  0  0  0  0  0
  -13.2850   15.5290   73.3730 C   0  0  0  0  0  0  0  0  0  0  0  0
  -12.3780   15.3840   74.5140 N   0  0  0  0  0  0  0  0  0  0  0  0
  -12.7470   16.6880   74.0840 N   0  0  0  0  0  0  0  0  0  0  0  0
  1 16  1  0  0  0  0
  1  2  2  0  0  0  0
  1  6  1  0  0  0  0
  2 41  1  0  0  0  0
  2  3  1  0  0  0  0
  3  4  1  0  0  0  0
  4  5  2  0  0  0  0
  4 10  1  0  0  0  0
  5  6  1  0  0  0  0
  5  7  1  0  0  0  0
  7  8  2  0  0  0  0
  8 53  1  0  0  0  0
  8  9  1  0  0  0  0
  9 10  2  0  0  0  0
  9 15  1  0  0  0  0
 10 11  1  0  0  0  0
 11 12  1  0  0  0  0
 12 13  2  0  0  0  0
 12 14  1  0  0  0  0
 14 15  1  0  0  0  0
 16 17  1  0  0  0  0
 16 22  2  0  0  0  0
 17 18  2  0  0  0  0
 18 19  1  0  0  0  0
 19 20  2  0  0  0  0
 20 21  1  0  0  0  0
 20 22  1  0  0  0  0
 21 23  2  0  0  0  0
 22 31  1  0  0  0  0
 23 24  1  0  0  0  0
 23 25  1  0  0  0  0
 24 26  1  0  0  0  0
 25 31  2  0  0  0  0
 25 28  1  0  0  0  0
 26 27  1  0  0  0  0
 26 32  1  0  0  0  0
 27 28  1  0  0  0  0
 27 29  2  0  0  0  0
 28 30  2  0  0  0  0
 32 33  1  0  0  0  0
 32 36  1  0  0  0  0
 33 39  1  0  0  0  0
 33 34  1  0  0  0  0
 34 35  1  0  0  0  0
 35 36  1  0  0  0  0
 35 37  1  0  0  0  0
 36 38  1  0  0  0  0
 39 40  1  0  0  0  0
 41 42  1  0  0  0  0
 42 43  1  0  0  0  0
 42 51  1  0  0  0  0
 43 44  1  0  0  0  0
 44 45  2  0  0  0  0
 44 46  1  0  0  0  0
 45 47  1  0  0  0  0
 46 48  2  0  0  0  0
 46 49  1  0  0  0  0
 49 50  2  0  0  0  0
 49 51  1  0  0  0  0
 51 52  2  0  0  0  0
 53 54  1  0  0  0  0
 53 55  1  0  0  0  0
 54 55  1  0  0  0  0
M  END
