
 OpenBabel09242018543D

 51 59  0  0  1  0  0  0  0  0999 V2000
  -10.5610   15.6370   66.5710 C   0  0  0  0  0  0  0  0  0  0  0  0
  -10.2430   16.8450   67.0930 C   0  0  0  0  0  0  0  0  0  0  0  0
  -10.4090   17.1340   68.4560 O   0  0  0  0  0  0  0  0  0  0  0  0
  -10.9630   16.1850   69.3020 C   0  0  0  0  0  0  0  0  0  0  0  0
  -11.2340   14.9440   68.8760 C   0  0  0  0  0  0  0  0  0  0  0  0
  -11.0190   14.5110   67.4700 C   0  0  0  0  0  0  0  0  0  0  0  0
  -11.8360   13.9830   69.8380 C   0  0  0  0  0  0  0  0  0  0  0  0
  -12.0880   12.7640   69.4860 N   0  0  0  0  0  0  0  0  0  0  0  0
  -12.6710   11.9070   70.3980 C   0  0  0  0  0  0  0  0  0  0  0  0
  -12.9170   10.7640   70.0360 O   0  0  0  0  0  0  0  0  0  0  0  0
  -12.9950   12.2730   71.6900 N   0  0  0  0  0  0  0  0  0  0  0  0
  -12.7550   13.4810   72.0660 C   0  0  0  0  0  0  0  0  0  0  0  0
  -12.1440   14.4840   71.1950 C   0  0  0  0  0  0  0  0  0  0  0  0
  -11.8580   15.7600   71.5230 C   0  0  0  0  0  0  0  0  0  0  0  0
  -11.2310   16.5760   70.5910 N   0  0  0  0  0  0  0  0  0  0  0  0
   -9.6740   18.0130   66.2880 C   0  0  0  0  0  0  0  0  0  0  0  0
  -10.7730   18.9800   66.0470 N   0  0  0  0  0  0  0  0  0  0  0  0
  -10.6600   20.1260   66.6160 C   0  0  0  0  0  0  0  0  0  0  0  0
   -9.6500   20.5810   67.3950 N   0  0  0  0  0  0  0  0  0  0  0  0
   -8.4830   19.8450   67.5250 C   0  0  0  0  0  0  0  0  0  0  0  0
   -8.4280   18.5780   66.9530 C   0  0  0  0  0  0  0  0  0  0  0  0
   -7.4490   20.4010   68.1950 N   0  0  0  0  0  0  0  0  0  0  0  0
   -7.2240   17.8730   67.0290 C   0  0  0  0  0  0  0  0  0  0  0  0
   -6.1490   18.4450   67.7100 C   0  0  0  0  0  0  0  0  0  0  0  0
   -6.3100   19.6880   68.3010 C   0  0  0  0  0  0  0  0  0  0  0  0
   -4.8670   17.7530   67.8240 C   0  0  0  0  0  0  0  0  0  0  0  0
   -5.3480   20.3180   69.0380 O   0  0  0  0  0  0  0  0  0  0  0  0
   -4.2800   19.5100   69.5340 C   0  0  0  0  0  0  0  0  0  0  0  0
   -3.7700   18.4960   68.5450 C   0  0  0  0  0  0  0  0  0  0  0  0
   -2.5920   18.2380   68.3480 O   0  0  0  0  0  0  0  0  0  0  0  0
   -4.6890   16.6270   67.3920 O   0  0  0  0  0  0  0  0  0  0  0  0
   -4.6550   18.8640   70.8390 C   0  0  0  0  0  0  0  0  0  0  0  0
   -4.6220   17.4220   70.8980 O   0  0  0  0  0  0  0  0  0  0  0  0
   -4.1470   19.4910   72.0210 O   0  0  0  0  0  0  0  0  0  0  0  0
   -5.4730   19.5820   71.8080 C   0  0  0  0  0  0  0  0  0  0  0  0
   -6.1830   20.5570   71.7200 O   0  0  0  0  0  0  0  0  0  0  0  0
  -10.4150   15.3860   65.2120 O   0  0  0  0  0  0  0  0  0  0  0  0
  -10.2910   14.0060   64.8300 C   0  0  0  0  0  0  0  0  0  0  0  0
   -9.9970   13.1690   65.9510 O   0  0  0  0  0  0  0  0  0  0  0  0
   -9.6660   11.8790   65.5780 C   0  0  0  0  0  0  0  0  0  0  0  0
   -8.6380   11.2320   66.1410 C   0  0  0  0  0  0  0  0  0  0  0  0
  -10.4540   11.1790   64.5270 C   0  0  0  0  0  0  0  0  0  0  0  0
   -7.8310   11.8010   67.0920 O   0  0  0  0  0  0  0  0  0  0  0  0
  -11.5650   12.0230   63.9330 C   0  0  0  0  0  0  0  0  0  0  0  0
  -10.2170   10.0500   64.1300 O   0  0  0  0  0  0  0  0  0  0  0  0
  -11.5730   13.5170   64.1740 C   0  0  0  0  0  0  0  0  0  0  0  0
  -12.4270   11.5030   63.2400 O   0  0  0  0  0  0  0  0  0  0  0  0
  -12.5060   14.2130   63.8020 O   0  0  0  0  0  0  0  0  0  0  0  0
  -12.1620   16.3780   72.8350 C   0  0  0  0  0  0  0  0  0  0  0  0
  -13.4340   16.1900   73.4760 O   0  0  0  0  0  0  0  0  0  0  0  0
  -12.2480   15.6100   74.0470 O   0  0  0  0  0  0  0  0  0  0  0  0
  1 37  1  0  0  0  0
  1  2  2  0  0  0  0
  1  6  1  0  0  0  0
  2  3  1  0  0  0  0
  2 16  1  0  0  0  0
  3  4  1  0  0  0  0
  4  5  2  0  0  0  0
  4 15  1  0  0  0  0
  5  6  1  0  0  0  0
  5  7  1  0  0  0  0
  7  8  2  0  0  0  0
  7 13  1  0  0  0  0
  8  9  1  0  0  0  0
  9 10  2  0  0  0  0
  9 11  1  0  0  0  0
 11 12  2  0  0  0  0
 12 13  1  0  0  0  0
 13 14  2  0  0  0  0
 14 15  1  0  0  0  0
 14 49  1  0  0  0  0
 16 17  1  0  0  0  0
 16 21  1  0  0  0  0
 17 18  2  0  0  0  0
 18 19  1  0  0  0  0
 19 20  1  0  0  0  0
 20 21  2  0  0  0  0
 20 22  1  0  0  0  0
 21 23  1  0  0  0  0
 22 25  2  0  0  0  0
 23 24  2  0  0  0  0
 24 25  1  0  0  0  0
 24 26  1  0  0  0  0
 25 27  1  0  0  0  0
 26 29  1  0  0  0  0
 26 31  2  0  0  0  0
 27 28  1  0  0  0  0
 28 29  1  0  0  0  0
 28 32  1  0  0  0  0
 29 30  2  0  0  0  0
 32 33  1  0  0  0  0
 32 34  1  0  0  0  0
 32 35  1  0  0  0  0
 34 35  1  0  0  0  0
 35 36  2  0  0  0  0
 37 38  1  0  0  0  0
 38 39  1  0  0  0  0
 38 46  1  0  0  0  0
 39 40  1  0  0  0  0
 40 41  2  0  0  0  0
 40 42  1  0  0  0  0
 41 43  1  0  0  0  0
 42 44  1  0  0  0  0
 42 45  2  0  0  0  0
 44 46  1  0  0  0  0
 44 47  2  0  0  0  0
 46 48  2  0  0  0  0
 49 50  1  0  0  0  0
 49 51  1  0  0  0  0
 50 51  1  0  0  0  0
M  END
