
 OpenBabel10112019493D

 50 58  0  0  1  0  0  0  0  0999 V2000
  -12.4970   10.1580   69.9580 O   0  0  0  0  0  0  0  0  0  0  0  0
  -12.5720   11.2890   70.4200 C   0  0  0  0  0  0  0  0  0  0  0  0
  -13.0170   11.4480   71.7160 N   0  0  0  0  0  0  0  0  0  0  0  0
  -13.0690   12.6370   72.2120 C   0  0  0  0  0  0  0  0  0  0  0  0
  -12.6720   13.8340   71.4650 C   0  0  0  0  0  0  0  0  0  0  0  0
  -12.2250   13.5440   70.0870 C   0  0  0  0  0  0  0  0  0  0  0  0
  -12.1920   12.3420   69.6140 N   0  0  0  0  0  0  0  0  0  0  0  0
  -11.7700   14.6890   69.2520 C   0  0  0  0  0  0  0  0  0  0  0  0
  -11.2790   14.4060   67.8770 C   0  0  0  0  0  0  0  0  0  0  0  0
  -10.5730   15.5820   67.2420 C   0  0  0  0  0  0  0  0  0  0  0  0
  -10.6130   16.7930   67.8570 C   0  0  0  0  0  0  0  0  0  0  0  0
  -11.2460   17.0000   69.0930 O   0  0  0  0  0  0  0  0  0  0  0  0
  -11.7540   15.9130   69.7980 C   0  0  0  0  0  0  0  0  0  0  0  0
  -12.2070   16.1240   71.0810 N   0  0  0  0  0  0  0  0  0  0  0  0
  -12.6660   15.1050   71.9150 C   0  0  0  0  0  0  0  0  0  0  0  0
   -9.9880   18.0280   67.3200 C   0  0  0  0  0  0  0  0  0  0  0  0
  -10.7750   18.7500   66.4960 N   0  0  0  0  0  0  0  0  0  0  0  0
  -10.2500   19.8920   66.0330 C   0  0  0  0  0  0  0  0  0  0  0  0
   -9.0320   20.3810   66.3140 N   0  0  0  0  0  0  0  0  0  0  0  0
   -8.2690   19.6690   67.1470 C   0  0  0  0  0  0  0  0  0  0  0  0
   -8.7050   18.4570   67.7080 C   0  0  0  0  0  0  0  0  0  0  0  0
   -7.0070   20.1630   67.4940 C   0  0  0  0  0  0  0  0  0  0  0  0
   -7.8610   17.7760   68.6110 C   0  0  0  0  0  0  0  0  0  0  0  0
   -6.6050   18.2930   68.9360 C   0  0  0  0  0  0  0  0  0  0  0  0
   -6.1770   19.5010   68.4010 C   0  0  0  0  0  0  0  0  0  0  0  0
   -5.7270   17.5460   69.8390 C   0  0  0  0  0  0  0  0  0  0  0  0
   -4.9880   20.1090   68.7110 O   0  0  0  0  0  0  0  0  0  0  0  0
   -4.2940   19.6220   69.8720 C   0  0  0  0  0  0  0  0  0  0  0  0
   -4.3490   18.1220   70.0420 C   0  0  0  0  0  0  0  0  0  0  0  0
   -3.4010   17.4110   70.3370 O   0  0  0  0  0  0  0  0  0  0  0  0
   -6.0780   16.5090   70.3790 O   0  0  0  0  0  0  0  0  0  0  0  0
   -4.7820   20.3050   71.1110 C   0  0  0  0  0  0  0  0  0  0  0  0
   -6.2170   20.3320   71.3140 O   0  0  0  0  0  0  0  0  0  0  0  0
   -4.0030   20.0300   72.2780 O   0  0  0  0  0  0  0  0  0  0  0  0
   -4.0220   21.3110   71.8560 C   0  0  0  0  0  0  0  0  0  0  0  0
   -4.4100   22.3030   72.4220 O   0  0  0  0  0  0  0  0  0  0  0  0
   -9.9640   15.4030   66.0010 O   0  0  0  0  0  0  0  0  0  0  0  0
  -10.0340   14.1170   65.3370 C   0  0  0  0  0  0  0  0  0  0  0  0
   -9.8040   13.0310   66.2660 O   0  0  0  0  0  0  0  0  0  0  0  0
  -10.2810   11.8000   66.0450 C   0  0  0  0  0  0  0  0  0  0  0  0
  -10.3170   10.9370   66.9950 N   0  0  0  0  0  0  0  0  0  0  0  0
  -10.8420   11.5290   64.6680 C   0  0  0  0  0  0  0  0  0  0  0  0
  -10.5140   10.5600   64.0100 O   0  0  0  0  0  0  0  0  0  0  0  0
  -11.6890   12.6320   64.1060 C   0  0  0  0  0  0  0  0  0  0  0  0
  -12.5470   12.4210   63.2690 O   0  0  0  0  0  0  0  0  0  0  0  0
  -11.4070   14.0150   64.6480 C   0  0  0  0  0  0  0  0  0  0  0  0
  -12.2180   14.9160   64.5010 O   0  0  0  0  0  0  0  0  0  0  0  0
  -13.0900   15.5130   73.2740 C   0  0  0  0  0  0  0  0  0  0  0  0
  -12.2730   15.2540   74.4280 O   0  0  0  0  0  0  0  0  0  0  0  0
  -12.4760   16.6060   73.9790 O   0  0  0  0  0  0  0  0  0  0  0  0
  1  2  2  0  0  0  0
  2  3  1  0  0  0  0
  2  7  1  0  0  0  0
  3  4  2  0  0  0  0
  4  5  1  0  0  0  0
  5  6  1  0  0  0  0
  5 15  2  0  0  0  0
  6  7  2  0  0  0  0
  6  8  1  0  0  0  0
  8  9  1  0  0  0  0
  8 13  2  0  0  0  0
  9 10  1  0  0  0  0
 10 11  2  0  0  0  0
 10 37  1  0  0  0  0
 11 12  1  0  0  0  0
 11 16  1  0  0  0  0
 12 13  1  0  0  0  0
 13 14  1  0  0  0  0
 14 15  1  0  0  0  0
 15 48  1  0  0  0  0
 16 17  2  0  0  0  0
 16 21  1  0  0  0  0
 17 18  1  0  0  0  0
 18 19  2  0  0  0  0
 19 20  1  0  0  0  0
 20 21  2  0  0  0  0
 20 22  1  0  0  0  0
 21 23  1  0  0  0  0
 22 25  2  0  0  0  0
 23 24  2  0  0  0  0
 24 25  1  0  0  0  0
 24 26  1  0  0  0  0
 25 27  1  0  0  0  0
 26 29  1  0  0  0  0
 26 31  2  0  0  0  0
 27 28  1  0  0  0  0
 28 29  1  0  0  0  0
 28 32  1  0  0  0  0
 29 30  2  0  0  0  0
 32 33  1  0  0  0  0
 32 34  1  0  0  0  0
 32 35  1  0  0  0  0
 34 35  1  0  0  0  0
 35 36  2  0  0  0  0
 37 38  1  0  0  0  0
 38 39  1  0  0  0  0
 38 46  1  0  0  0  0
 39 40  1  0  0  0  0
 40 41  2  0  0  0  0
 40 42  1  0  0  0  0
 42 43  2  0  0  0  0
 42 44  1  0  0  0  0
 44 45  2  0  0  0  0
 44 46  1  0  0  0  0
 46 47  2  0  0  0  0
 48 49  1  0  0  0  0
 48 50  1  0  0  0  0
 49 50  1  0  0  0  0
M  END
