
 OpenBabel11252023563D

 54 63  0  0  1  0  0  0  0  0999 V2000
  -11.0310   15.3320   67.2640 C   0  0  0  0  0  0  0  0  0  0  0  0
  -10.6530   16.5190   67.7630 C   0  0  0  0  0  0  0  0  0  0  0  0
  -10.9040   16.8750   69.1120 O   0  0  0  0  0  0  0  0  0  0  0  0
  -11.5430   15.9720   69.9670 C   0  0  0  0  0  0  0  0  0  0  0  0
  -11.7210   14.6720   69.5880 C   0  0  0  0  0  0  0  0  0  0  0  0
  -11.3730   14.2660   68.2220 C   0  0  0  0  0  0  0  0  0  0  0  0
  -12.3750   13.8070   70.4630 C   0  0  0  0  0  0  0  0  0  0  0  0
  -12.6900   12.5150   70.0300 O   0  0  0  0  0  0  0  0  0  0  0  0
  -13.0160   11.4910   70.9220 C   0  0  0  0  0  0  0  0  0  0  0  0
  -13.1550   10.3380   70.5330 O   0  0  0  0  0  0  0  0  0  0  0  0
  -13.0370   11.8460   72.2290 O   0  0  0  0  0  0  0  0  0  0  0  0
  -13.4490   13.1700   72.5530 C   0  0  0  0  0  0  0  0  0  0  0  0
  -12.7590   14.1960   71.7180 C   0  0  0  0  0  0  0  0  0  0  0  0
  -12.5170   15.5270   72.0660 C   0  0  0  0  0  0  0  0  0  0  0  0
  -11.9170   16.4130   71.1800 N   0  0  0  0  0  0  0  0  0  0  0  0
  -14.8430   13.2940   72.3480 O   0  0  0  0  0  0  0  0  0  0  0  0
   -9.8890   17.5440   66.9920 C   0  0  0  0  0  0  0  0  0  0  0  0
  -10.6500   18.5590   66.3970 C   0  0  0  0  0  0  0  0  0  0  0  0
  -10.0500   19.6370   65.8970 N   0  0  0  0  0  0  0  0  0  0  0  0
  -10.7980   20.5940   65.3100 F   0  0  0  0  0  0  0  0  0  0  0  0
   -8.7540   19.8310   66.0060 N   0  0  0  0  0  0  0  0  0  0  0  0
   -7.9860   18.8790   66.5690 C   0  0  0  0  0  0  0  0  0  0  0  0
   -8.5040   17.6720   67.0170 N   0  0  0  0  0  0  0  0  0  0  0  0
   -6.5960   19.1390   66.7680 C   0  0  0  0  0  0  0  0  0  0  0  0
   -7.6100   16.7300   67.4440 C   0  0  0  0  0  0  0  0  0  0  0  0
   -6.2550   16.9150   67.5170 C   0  0  0  0  0  0  0  0  0  0  0  0
   -5.7500   18.1510   67.2820 C   0  0  0  0  0  0  0  0  0  0  0  0
   -5.3650   15.8170   67.8900 C   0  0  0  0  0  0  0  0  0  0  0  0
   -4.4350   18.4100   67.5720 O   0  0  0  0  0  0  0  0  0  0  0  0
   -3.9760   17.6650   68.7530 C   0  0  0  0  0  0  0  0  0  0  0  0
   -4.1450   16.1940   68.7110 C   0  0  0  0  0  0  0  0  0  0  0  0
   -2.8850   18.1910   69.4440 O   0  0  0  0  0  0  0  0  0  0  0  0
   -4.1710   18.2660   70.1200 C   0  0  0  0  0  0  0  0  0  0  0  0
   -3.5840   15.4010   69.4400 O   0  0  0  0  0  0  0  0  0  0  0  0
   -5.0080   19.4640   69.9120 O   0  0  0  0  0  0  0  0  0  0  0  0
   -4.1550   19.4690   70.9540 C   0  0  0  0  0  0  0  0  0  0  0  0
   -4.3800   19.6540   72.0930 O   0  0  0  0  0  0  0  0  0  0  0  0
   -5.6710   14.6810   67.5810 O   0  0  0  0  0  0  0  0  0  0  0  0
   -5.9910   20.3050   66.2690 N   0  0  0  0  0  0  0  0  0  0  0  0
  -11.1060   15.1020   65.9090 O   0  0  0  0  0  0  0  0  0  0  0  0
  -10.3310   14.1950   65.0730 C   0  0  0  0  0  0  0  0  0  0  0  0
   -9.3310   13.4150   65.6740 O   0  0  0  0  0  0  0  0  0  0  0  0
   -9.7350   12.1680   66.1240 C   0  0  0  0  0  0  0  0  0  0  0  0
   -8.9370   11.4650   66.9290 C   0  0  0  0  0  0  0  0  0  0  0  0
  -11.1830   11.7420   65.9800 C   0  0  0  0  0  0  0  0  0  0  0  0
   -7.6540   11.8430   67.2250 O   0  0  0  0  0  0  0  0  0  0  0  0
  -11.8190   12.1460   64.6990 C   0  0  0  0  0  0  0  0  0  0  0  0
  -11.8340   11.2600   66.9080 O   0  0  0  0  0  0  0  0  0  0  0  0
  -11.3880   13.5060   64.2350 C   0  0  0  0  0  0  0  0  0  0  0  0
  -13.1820   12.1060   64.7940 F   0  0  0  0  0  0  0  0  0  0  0  0
  -11.9660   14.1190   63.3330 O   0  0  0  0  0  0  0  0  0  0  0  0
  -12.8940   16.0270   73.4380 C   0  0  0  0  0  0  0  0  0  0  0  0
  -12.1880   15.4470   74.5460 O   0  0  0  0  0  0  0  0  0  0  0  0
  -11.9360   16.8130   74.1560 O   0  0  0  0  0  0  0  0  0  0  0  0
  1 40  1  0  0  0  0
  1  2  2  0  0  0  0
  1  6  1  0  0  0  0
  2  3  1  0  0  0  0
  2 17  1  0  0  0  0
  3  4  1  0  0  0  0
  4  5  2  0  0  0  0
  4 15  1  0  0  0  0
  5  6  1  0  0  0  0
  5  7  1  0  0  0  0
  7  8  1  0  0  0  0
  7 13  2  0  0  0  0
  8  9  1  0  0  0  0
  9 10  2  0  0  0  0
  9 11  1  0  0  0  0
 11 12  1  0  0  0  0
 12 13  1  0  0  0  0
 12 16  1  0  0  0  0
 13 14  1  0  0  0  0
 14 15  2  0  0  0  0
 14 52  1  0  0  0  0
 17 18  2  0  0  0  0
 17 23  1  0  0  0  0
 18 19  1  0  0  0  0
 19 20  1  0  0  0  0
 19 21  2  0  0  0  0
 21 22  1  0  0  0  0
 22 23  2  0  0  0  0
 22 24  1  0  0  0  0
 23 25  1  0  0  0  0
 24 27  2  0  0  0  0
 24 39  1  0  0  0  0
 25 26  2  0  0  0  0
 26 27  1  0  0  0  0
 26 28  1  0  0  0  0
 27 29  1  0  0  0  0
 28 31  1  0  0  0  0
 28 38  2  0  0  0  0
 29 30  1  0  0  0  0
 30 31  1  0  0  0  0
 30 32  1  0  0  0  0
 30 33  1  0  0  0  0
 31 34  2  0  0  0  0
 32 33  1  0  0  0  0
 33 35  1  0  0  0  0
 33 36  1  0  0  0  0
 35 36  1  0  0  0  0
 36 37  2  0  0  0  0
 40 41  1  0  0  0  0
 41 42  1  0  0  0  0
 41 49  1  0  0  0  0
 42 43  1  0  0  0  0
 43 44  2  0  0  0  0
 43 45  1  0  0  0  0
 44 46  1  0  0  0  0
 45 47  1  0  0  0  0
 45 48  2  0  0  0  0
 47 49  1  0  0  0  0
 47 50  1  0  0  0  0
 49 51  2  0  0  0  0
 52 53  1  0  0  0  0
 52 54  1  0  0  0  0
 53 54  1  0  0  0  0
M  CHG  2  19   1  23   1
M  END