
 OpenBabel09222010303D

 51 59  0  0  1  0  0  0  0  0999 V2000
  -10.3030   15.6510   67.5780 C   0  0  0  0  0  0  0  0  0  0  0  0
  -10.3970   16.8530   68.1870 C   0  0  0  0  0  0  0  0  0  0  0  0
  -11.0580   17.0340   69.4000 O   0  0  0  0  0  0  0  0  0  0  0  0
  -11.5780   15.9010   69.9930 C   0  0  0  0  0  0  0  0  0  0  0  0
  -11.4700   14.6770   69.3720 C   0  0  0  0  0  0  0  0  0  0  0  0
  -10.8840   14.5240   68.1520 O   0  0  0  0  0  0  0  0  0  0  0  0
  -11.9590   13.5630   70.0360 C   0  0  0  0  0  0  0  0  0  0  0  0
  -11.8310   12.2920   69.4670 N   0  0  0  0  0  0  0  0  0  0  0  0
  -12.3080   11.1490   70.0190 C   0  0  0  0  0  0  0  0  0  0  0  0
  -12.1700   10.0660   69.4610 O   0  0  0  0  0  0  0  0  0  0  0  0
  -12.9560   11.2620   71.2010 N   0  0  0  0  0  0  0  0  0  0  0  0
  -13.0190   12.4600   72.0010 C   0  0  0  0  0  0  0  0  0  0  0  0
  -12.5620   13.6940   71.2840 C   0  0  0  0  0  0  0  0  0  0  0  0
  -12.6580   14.9770   71.8510 C   0  0  0  0  0  0  0  0  0  0  0  0
  -12.1510   16.0690   71.2050 N   0  0  0  0  0  0  0  0  0  0  0  0
   -9.8490   18.1010   67.6260 C   0  0  0  0  0  0  0  0  0  0  0  0
  -10.7450   18.8010   66.8830 N   0  0  0  0  0  0  0  0  0  0  0  0
  -10.3500   19.9890   66.3870 C   0  0  0  0  0  0  0  0  0  0  0  0
   -9.0930   20.5270   66.5860 C   0  0  0  0  0  0  0  0  0  0  0  0
   -8.1710   19.8150   67.3540 C   0  0  0  0  0  0  0  0  0  0  0  0
   -8.5370   18.5610   67.9020 C   0  0  0  0  0  0  0  0  0  0  0  0
   -6.9000   20.3600   67.6070 C   0  0  0  0  0  0  0  0  0  0  0  0
   -7.5790   17.8810   68.6920 C   0  0  0  0  0  0  0  0  0  0  0  0
   -6.3220   18.4480   68.9430 C   0  0  0  0  0  0  0  0  0  0  0  0
   -5.9900   19.6990   68.4280 C   0  0  0  0  0  0  0  0  0  0  0  0
   -5.3410   17.7390   69.7780 C   0  0  0  0  0  0  0  0  0  0  0  0
   -4.8250   20.3690   68.6890 O   0  0  0  0  0  0  0  0  0  0  0  0
   -4.1050   19.9430   69.8540 C   0  0  0  0  0  0  0  0  0  0  0  0
   -4.0140   18.4410   69.9650 C   0  0  0  0  0  0  0  0  0  0  0  0
   -2.9850   17.8180   70.1810 O   0  0  0  0  0  0  0  0  0  0  0  0
   -5.5680   16.6560   70.2920 O   0  0  0  0  0  0  0  0  0  0  0  0
   -4.6930   20.5270   71.1060 C   0  0  0  0  0  0  0  0  0  0  0  0
   -6.1270   20.5630   71.2120 O   0  0  0  0  0  0  0  0  0  0  0  0
   -3.9440   20.2250   72.2980 O   0  0  0  0  0  0  0  0  0  0  0  0
   -3.9700   21.5180   71.9300 C   0  0  0  0  0  0  0  0  0  0  0  0
   -4.3910   22.4810   72.5250 O   0  0  0  0  0  0  0  0  0  0  0  0
   -9.6110   15.5000   66.3840 O   0  0  0  0  0  0  0  0  0  0  0  0
   -9.5830   14.1570   65.8890 C   0  0  0  0  0  0  0  0  0  0  0  0
   -9.4780   13.2200   66.9650 O   0  0  0  0  0  0  0  0  0  0  0  0
   -9.5760   11.8760   66.6320 C   0  0  0  0  0  0  0  0  0  0  0  0
   -9.1080   10.9460   67.4750 C   0  0  0  0  0  0  0  0  0  0  0  0
  -10.2330   11.3940   65.3770 C   0  0  0  0  0  0  0  0  0  0  0  0
   -8.5140   11.2220   68.6790 O   0  0  0  0  0  0  0  0  0  0  0  0
  -10.7550   12.4990   64.4870 C   0  0  0  0  0  0  0  0  0  0  0  0
  -10.3520   10.2210   65.0670 O   0  0  0  0  0  0  0  0  0  0  0  0
  -10.8170   13.8830   65.0560 C   0  0  0  0  0  0  0  0  0  0  0  0
  -10.9990   12.3090   63.3070 O   0  0  0  0  0  0  0  0  0  0  0  0
  -11.7440   14.6380   64.8110 O   0  0  0  0  0  0  0  0  0  0  0  0
  -13.2920   15.1880   73.2070 C   0  0  0  0  0  0  0  0  0  0  0  0
  -12.4420   15.1870   74.3630 O   0  0  0  0  0  0  0  0  0  0  0  0
  -13.0050   16.4240   73.8820 O   0  0  0  0  0  0  0  0  0  0  0  0
  1 37  1  0  0  0  0
  1  2  2  0  0  0  0
  1  6  1  0  0  0  0
  2  3  1  0  0  0  0
  2 16  1  0  0  0  0
  3  4  1  0  0  0  0
  4  5  2  0  0  0  0
  4 15  1  0  0  0  0
  5  6  1  0  0  0  0
  5  7  1  0  0  0  0
  7  8  1  0  0  0  0
  7 13  2  0  0  0  0
  8  9  1  0  0  0  0
  9 10  2  0  0  0  0
  9 11  1  0  0  0  0
 11 12  1  0  0  0  0
 12 13  1  0  0  0  0
 13 14  1  0  0  0  0
 14 15  2  0  0  0  0
 14 49  1  0  0  0  0
 16 17  2  0  0  0  0
 16 21  1  0  0  0  0
 17 18  1  0  0  0  0
 18 19  2  0  0  0  0
 19 20  1  0  0  0  0
 20 21  2  0  0  0  0
 20 22  1  0  0  0  0
 21 23  1  0  0  0  0
 22 25  2  0  0  0  0
 23 24  2  0  0  0  0
 24 25  1  0  0  0  0
 24 26  1  0  0  0  0
 25 27  1  0  0  0  0
 26 29  1  0  0  0  0
 26 31  2  0  0  0  0
 27 28  1  0  0  0  0
 28 29  1  0  0  0  0
 28 32  1  0  0  0  0
 29 30  2  0  0  0  0
 32 33  1  0  0  0  0
 32 34  1  0  0  0  0
 32 35  1  0  0  0  0
 34 35  1  0  0  0  0
 35 36  2  0  0  0  0
 37 38  1  0  0  0  0
 38 39  1  0  0  0  0
 38 46  1  0  0  0  0
 39 40  1  0  0  0  0
 40 41  2  0  0  0  0
 40 42  1  0  0  0  0
 41 43  1  0  0  0  0
 42 44  1  0  0  0  0
 42 45  2  0  0  0  0
 44 46  1  0  0  0  0
 44 47  2  0  0  0  0
 46 48  2  0  0  0  0
 49 50  1  0  0  0  0
 49 51  1  0  0  0  0
 50 51  1  0  0  0  0
M  END
