
 OpenBabel11232003253D

 54 62  0  0  1  0  0  0  0  0999 V2000
  -10.6030   15.7110   67.3360 C   0  0  0  0  0  0  0  0  0  0  0  0
  -10.3660   16.8720   68.0040 C   0  0  0  0  0  0  0  0  0  0  0  0
  -10.7610   17.0150   69.3650 O   0  0  0  0  0  0  0  0  0  0  0  0
  -11.4920   16.0000   70.0160 C   0  0  0  0  0  0  0  0  0  0  0  0
  -11.6340   14.8020   69.4390 C   0  0  0  0  0  0  0  0  0  0  0  0
  -11.1650   14.5220   68.0560 C   0  0  0  0  0  0  0  0  0  0  0  0
  -12.3910   13.6820   70.0520 C   0  0  0  0  0  0  0  0  0  0  0  0
  -11.5720   12.5320   70.1150 O   0  0  0  0  0  0  0  0  0  0  0  0
  -12.3020   11.4050   70.3650 C   0  0  0  0  0  0  0  0  0  0  0  0
  -11.9940   10.3020   69.9690 O   0  0  0  0  0  0  0  0  0  0  0  0
  -13.4260   11.6710   71.0970 O   0  0  0  0  0  0  0  0  0  0  0  0
  -13.2170   12.6660   72.0710 C   0  0  0  0  0  0  0  0  0  0  0  0
  -12.8160   13.9860   71.4570 C   0  0  0  0  0  0  0  0  0  0  0  0
  -12.7680   15.2420   71.9980 C   0  0  0  0  0  0  0  0  0  0  0  0
  -12.0890   16.2730   71.2500 O   0  0  0  0  0  0  0  0  0  0  0  0
  -14.4440   12.9280   72.7440 O   0  0  0  0  0  0  0  0  0  0  0  0
   -9.6590   18.0740   67.3850 C   0  0  0  0  0  0  0  0  0  0  0  0
  -10.3250   18.8430   66.4200 C   0  0  0  0  0  0  0  0  0  0  0  0
   -9.7450   19.8920   65.8210 N   0  0  0  0  0  0  0  0  0  0  0  0
  -10.4490   20.6080   64.9200 F   0  0  0  0  0  0  0  0  0  0  0  0
   -8.4970   20.2390   66.0510 N   0  0  0  0  0  0  0  0  0  0  0  0
   -7.7720   19.5570   66.9340 C   0  0  0  0  0  0  0  0  0  0  0  0
   -8.3140   18.4620   67.6520 C   0  0  0  0  0  0  0  0  0  0  0  0
   -6.4410   19.9410   67.1540 C   0  0  0  0  0  0  0  0  0  0  0  0
   -7.4680   17.8340   68.5900 C   0  0  0  0  0  0  0  0  0  0  0  0
   -6.1270   18.2120   68.7470 C   0  0  0  0  0  0  0  0  0  0  0  0
   -5.2730   17.4520   69.6570 C   0  0  0  0  0  0  0  0  0  0  0  0
   -5.6060   19.2860   68.0580 C   0  0  0  0  0  0  0  0  0  0  0  0
   -5.6730   16.3800   70.1030 O   0  0  0  0  0  0  0  0  0  0  0  0
   -3.9020   18.0310   69.9370 C   0  0  0  0  0  0  0  0  0  0  0  0
   -3.0520   17.3080   70.4350 O   0  0  0  0  0  0  0  0  0  0  0  0
   -3.7460   19.4940   69.5560 C   0  0  0  0  0  0  0  0  0  0  0  0
   -4.3490   19.7760   68.2700 O   0  0  0  0  0  0  0  0  0  0  0  0
   -5.9610   21.0020   66.4860 F   0  0  0  0  0  0  0  0  0  0  0  0
   -4.2170   20.4240   70.6570 C   0  0  0  0  0  0  0  0  0  0  0  0
   -5.4380   21.1420   70.4010 O   0  0  0  0  0  0  0  0  0  0  0  0
   -4.0500   19.9380   71.9970 O   0  0  0  0  0  0  0  0  0  0  0  0
   -3.3540   21.0210   71.6610 C   0  0  0  0  0  0  0  0  0  0  0  0
   -2.1610   21.2890   71.6440 O   0  0  0  0  0  0  0  0  0  0  0  0
  -10.3600   15.5780   65.9750 O   0  0  0  0  0  0  0  0  0  0  0  0
  -10.1460   14.2600   65.3800 C   0  0  0  0  0  0  0  0  0  0  0  0
   -9.9200   13.2610   66.3670 O   0  0  0  0  0  0  0  0  0  0  0  0
   -9.5830   12.0370   65.8220 C   0  0  0  0  0  0  0  0  0  0  0  0
   -8.5280   11.3400   66.2680 C   0  0  0  0  0  0  0  0  0  0  0  0
  -10.4300   11.4580   64.7370 C   0  0  0  0  0  0  0  0  0  0  0  0
   -7.6590   11.7960   67.2360 O   0  0  0  0  0  0  0  0  0  0  0  0
  -11.4420   12.4450   64.1660 C   0  0  0  0  0  0  0  0  0  0  0  0
  -10.3020   10.3230   64.3180 O   0  0  0  0  0  0  0  0  0  0  0  0
  -11.3910   13.9040   64.5910 C   0  0  0  0  0  0  0  0  0  0  0  0
  -12.2710   12.0880   63.3480 O   0  0  0  0  0  0  0  0  0  0  0  0
  -12.2570   14.7180   64.3010 O   0  0  0  0  0  0  0  0  0  0  0  0
  -13.2960   15.5740   73.3890 C   0  0  0  0  0  0  0  0  0  0  0  0
  -12.5800   16.4630   74.3950 N   0  0  0  0  0  0  0  0  0  0  0  0
  -12.4040   15.3960   74.6000 N   0  0  0  0  0  0  0  0  0  0  0  0
  1 40  1  0  0  0  0
  1  2  2  0  0  0  0
  1  6  1  0  0  0  0
  2  3  1  0  0  0  0
  2 17  1  0  0  0  0
  3  4  1  0  0  0  0
  4  5  2  0  0  0  0
  4 15  1  0  0  0  0
  5  6  1  0  0  0  0
  5  7  1  0  0  0  0
  7  8  1  0  0  0  0
  7 13  1  0  0  0  0
  8  9  1  0  0  0  0
  9 10  2  0  0  0  0
  9 11  1  0  0  0  0
 11 12  1  0  0  0  0
 12 13  1  0  0  0  0
 12 16  1  0  0  0  0
 13 14  2  0  0  0  0
 14 15  1  0  0  0  0
 14 52  1  0  0  0  0
 17 18  2  0  0  0  0
 17 23  1  0  0  0  0
 18 19  1  0  0  0  0
 19 20  1  0  0  0  0
 19 21  2  0  0  0  0
 21 22  1  0  0  0  0
 22 23  2  0  0  0  0
 22 24  1  0  0  0  0
 23 25  1  0  0  0  0
 24 28  2  0  0  0  0
 24 34  1  0  0  0  0
 25 26  2  0  0  0  0
 26 27  1  0  0  0  0
 26 28  1  0  0  0  0
 27 29  2  0  0  0  0
 27 30  1  0  0  0  0
 28 33  1  0  0  0  0
 30 31  2  0  0  0  0
 30 32  1  0  0  0  0
 32 33  1  0  0  0  0
 32 35  1  0  0  0  0
 35 36  1  0  0  0  0
 35 37  1  0  0  0  0
 35 38  1  0  0  0  0
 37 38  1  0  0  0  0
 38 39  2  0  0  0  0
 40 41  1  0  0  0  0
 41 42  1  0  0  0  0
 41 49  1  0  0  0  0
 42 43  1  0  0  0  0
 43 44  2  0  0  0  0
 43 45  1  0  0  0  0
 44 46  1  0  0  0  0
 45 47  1  0  0  0  0
 45 48  2  0  0  0  0
 47 49  1  0  0  0  0
 47 50  2  0  0  0  0
 49 51  2  0  0  0  0
 52 53  1  0  0  0  0
 52 54  1  0  0  0  0
 53 54  3  0  0  0  0
M  CHG  4  15   1  53   1  54   1  19   1
M  END