
 OpenBabel11272002523D

 54 62  0  0  1  0  0  0  0  0999 V2000
  -11.3510   15.8480   67.2310 C   0  0  0  0  0  0  0  0  0  0  0  0
  -10.8400   16.9150   67.8930 C   0  0  0  0  0  0  0  0  0  0  0  0
  -11.0710   17.0990   69.2710 O   0  0  0  0  0  0  0  0  0  0  0  0
  -11.6200   16.0800   70.0350 C   0  0  0  0  0  0  0  0  0  0  0  0
  -12.1170   14.9730   69.4600 C   0  0  0  0  0  0  0  0  0  0  0  0
  -12.1350   14.7980   67.9790 C   0  0  0  0  0  0  0  0  0  0  0  0
  -12.6960   13.8470   70.2590 C   0  0  0  0  0  0  0  0  0  0  0  0
  -11.8510   12.7220   70.0930 O   0  0  0  0  0  0  0  0  0  0  0  0
  -12.1140   11.6010   70.8170 C   0  0  0  0  0  0  0  0  0  0  0  0
  -11.6010   10.5300   70.5390 O   0  0  0  0  0  0  0  0  0  0  0  0
  -12.9470   11.7490   71.8780 O   0  0  0  0  0  0  0  0  0  0  0  0
  -13.3590   13.0040   72.4060 C   0  0  0  0  0  0  0  0  0  0  0  0
  -12.7150   14.1460   71.7080 C   0  0  0  0  0  0  0  0  0  0  0  0
  -12.2040   15.2830   72.2330 C   0  0  0  0  0  0  0  0  0  0  0  0
  -11.6320   16.2420   71.4010 O   0  0  0  0  0  0  0  0  0  0  0  0
  -14.7470   13.1590   72.1970 O   0  0  0  0  0  0  0  0  0  0  0  0
   -9.8370   17.8890   67.3610 C   0  0  0  0  0  0  0  0  0  0  0  0
  -10.4080   18.7130   66.4520 N   0  0  0  0  0  0  0  0  0  0  0  0
   -9.6600   19.7230   65.9990 C   0  0  0  0  0  0  0  0  0  0  0  0
  -10.2170   20.5280   65.0840 F   0  0  0  0  0  0  0  0  0  0  0  0
   -8.4150   19.9930   66.3810 N   0  0  0  0  0  0  0  0  0  0  0  0
   -7.8350   19.1650   67.2570 C   0  0  0  0  0  0  0  0  0  0  0  0
   -8.4880   18.0250   67.7570 C   0  0  0  0  0  0  0  0  0  0  0  0
   -6.5380   19.4430   67.7030 C   0  0  0  0  0  0  0  0  0  0  0  0
   -7.7520   17.1400   68.5860 C   0  0  0  0  0  0  0  0  0  0  0  0
   -6.4590   17.4580   69.0210 C   0  0  0  0  0  0  0  0  0  0  0  0
   -5.7470   16.5670   69.9420 C   0  0  0  0  0  0  0  0  0  0  0  0
   -5.8540   18.6290   68.6090 C   0  0  0  0  0  0  0  0  0  0  0  0
   -6.2780   15.5640   70.3930 O   0  0  0  0  0  0  0  0  0  0  0  0
   -4.3530   16.9860   70.3510 C   0  0  0  0  0  0  0  0  0  0  0  0
   -3.5710   16.1660   70.8080 O   0  0  0  0  0  0  0  0  0  0  0  0
   -4.0890   18.4660   70.2190 C   0  0  0  0  0  0  0  0  0  0  0  0
   -4.6150   19.0380   69.0110 O   0  0  0  0  0  0  0  0  0  0  0  0
   -5.9250   20.5560   67.2630 F   0  0  0  0  0  0  0  0  0  0  0  0
   -4.5850   19.2190   71.4190 C   0  0  0  0  0  0  0  0  0  0  0  0
   -5.4900   18.5130   72.2920 O   0  0  0  0  0  0  0  0  0  0  0  0
   -3.6330   20.0340   72.0980 O   0  0  0  0  0  0  0  0  0  0  0  0
   -4.6100   20.6800   71.4290 C   0  0  0  0  0  0  0  0  0  0  0  0
   -4.5350   21.4990   70.5460 O   0  0  0  0  0  0  0  0  0  0  0  0
  -11.0590   15.5780   65.8990 O   0  0  0  0  0  0  0  0  0  0  0  0
  -10.6420   14.2330   65.5980 C   0  0  0  0  0  0  0  0  0  0  0  0
  -10.1740   13.5630   66.7710 O   0  0  0  0  0  0  0  0  0  0  0  0
   -9.8480   12.2210   66.6400 C   0  0  0  0  0  0  0  0  0  0  0  0
   -9.0710   11.6260   67.5470 C   0  0  0  0  0  0  0  0  0  0  0  0
  -10.3400   11.3690   65.5170 C   0  0  0  0  0  0  0  0  0  0  0  0
   -8.5620   12.3070   68.5910 F   0  0  0  0  0  0  0  0  0  0  0  0
  -11.2540   12.0910   64.5510 C   0  0  0  0  0  0  0  0  0  0  0  0
  -10.0080   10.2110   65.3360 O   0  0  0  0  0  0  0  0  0  0  0  0
  -11.7610   13.4390   64.9570 C   0  0  0  0  0  0  0  0  0  0  0  0
  -11.4480   11.6880   63.4170 O   0  0  0  0  0  0  0  0  0  0  0  0
  -12.9170   13.7820   64.7660 O   0  0  0  0  0  0  0  0  0  0  0  0
  -12.2460   15.6140   73.6790 C   0  0  0  0  0  0  0  0  0  0  0  0
  -12.1130   16.9730   74.1280 O   0  0  0  0  0  0  0  0  0  0  0  0
  -13.3780   16.2930   74.2400 O   0  0  0  0  0  0  0  0  0  0  0  0
  1 40  1  0  0  0  0
  1  2  2  0  0  0  0
  1  6  1  0  0  0  0
  2  3  1  0  0  0  0
  2 17  1  0  0  0  0
  3  4  1  0  0  0  0
  4  5  2  0  0  0  0
  4 15  1  0  0  0  0
  5  6  1  0  0  0  0
  5  7  1  0  0  0  0
  7  8  1  0  0  0  0
  7 13  1  0  0  0  0
  8  9  1  0  0  0  0
  9 10  2  0  0  0  0
  9 11  1  0  0  0  0
 11 12  1  0  0  0  0
 12 13  1  0  0  0  0
 12 16  1  0  0  0  0
 13 14  2  0  0  0  0
 14 15  1  0  0  0  0
 14 52  1  0  0  0  0
 17 18  2  0  0  0  0
 17 23  1  0  0  0  0
 18 19  1  0  0  0  0
 19 20  1  0  0  0  0
 19 21  2  0  0  0  0
 21 22  1  0  0  0  0
 22 23  2  0  0  0  0
 22 24  1  0  0  0  0
 23 25  1  0  0  0  0
 24 28  2  0  0  0  0
 24 34  1  0  0  0  0
 25 26  2  0  0  0  0
 26 27  1  0  0  0  0
 26 28  1  0  0  0  0
 27 29  2  0  0  0  0
 27 30  1  0  0  0  0
 28 33  1  0  0  0  0
 30 31  2  0  0  0  0
 30 32  1  0  0  0  0
 32 33  1  0  0  0  0
 32 35  1  0  0  0  0
 35 36  1  0  0  0  0
 35 37  1  0  0  0  0
 35 38  1  0  0  0  0
 37 38  1  0  0  0  0
 38 39  2  0  0  0  0
 40 41  1  0  0  0  0
 41 42  1  0  0  0  0
 41 49  1  0  0  0  0
 42 43  1  0  0  0  0
 43 44  2  0  0  0  0
 43 45  1  0  0  0  0
 44 46  1  0  0  0  0
 45 47  1  0  0  0  0
 45 48  2  0  0  0  0
 47 49  1  0  0  0  0
 47 50  2  0  0  0  0
 49 51  2  0  0  0  0
 52 53  1  0  0  0  0
 52 54  1  0  0  0  0
 53 54  1  0  0  0  0
M  CHG  1  15   1
M  END