
 OpenBabel11212021383D

 54 62  0  0  1  0  0  0  0  0999 V2000
  -11.0630   15.7160   67.3830 C   0  0  0  0  0  0  0  0  0  0  0  0
  -10.5360   16.7510   68.0890 C   0  0  0  0  0  0  0  0  0  0  0  0
  -10.6380   16.7990   69.4930 O   0  0  0  0  0  0  0  0  0  0  0  0
  -11.3520   15.8200   70.1940 C   0  0  0  0  0  0  0  0  0  0  0  0
  -11.8280   14.7330   69.5670 C   0  0  0  0  0  0  0  0  0  0  0  0
  -11.6980   14.5430   68.0940 C   0  0  0  0  0  0  0  0  0  0  0  0
  -12.5800   13.6480   70.2850 C   0  0  0  0  0  0  0  0  0  0  0  0
  -11.8010   12.4690   70.2300 O   0  0  0  0  0  0  0  0  0  0  0  0
  -12.3390   11.3670   70.8230 C   0  0  0  0  0  0  0  0  0  0  0  0
  -11.9320   10.2450   70.5770 O   0  0  0  0  0  0  0  0  0  0  0  0
  -13.3760   11.6090   71.6650 O   0  0  0  0  0  0  0  0  0  0  0  0
  -13.4800   12.8360   72.3800 C   0  0  0  0  0  0  0  0  0  0  0  0
  -12.7520   13.9520   71.7180 C   0  0  0  0  0  0  0  0  0  0  0  0
  -12.2800   15.0790   72.2940 C   0  0  0  0  0  0  0  0  0  0  0  0
  -11.5560   16.0020   71.5480 O   0  0  0  0  0  0  0  0  0  0  0  0
  -14.8340   13.2430   72.3770 O   0  0  0  0  0  0  0  0  0  0  0  0
   -9.7500   17.8800   67.4640 C   0  0  0  0  0  0  0  0  0  0  0  0
  -10.4410   18.5850   66.5510 N   0  0  0  0  0  0  0  0  0  0  0  0
   -9.8620   19.5920   65.9310 N   0  0  0  0  0  0  0  0  0  0  0  0
  -10.5640   20.2590   64.9930 F   0  0  0  0  0  0  0  0  0  0  0  0
   -8.6200   19.9520   66.1450 N   0  0  0  0  0  0  0  0  0  0  0  0
   -7.8850   19.2700   67.0140 C   0  0  0  0  0  0  0  0  0  0  0  0
   -8.3960   18.1770   67.7250 C   0  0  0  0  0  0  0  0  0  0  0  0
   -6.5610   19.6690   67.2200 C   0  0  0  0  0  0  0  0  0  0  0  0
   -7.5190   17.5060   68.6220 C   0  0  0  0  0  0  0  0  0  0  0  0
   -6.1870   17.9140   68.7860 C   0  0  0  0  0  0  0  0  0  0  0  0
   -5.3090   17.2190   69.7330 C   0  0  0  0  0  0  0  0  0  0  0  0
   -5.7060   19.0190   68.1090 C   0  0  0  0  0  0  0  0  0  0  0  0
   -5.6940   16.2220   70.3190 O   0  0  0  0  0  0  0  0  0  0  0  0
   -3.9270   17.8130   69.8920 C   0  0  0  0  0  0  0  0  0  0  0  0
   -2.9680   17.0870   70.0960 O   0  0  0  0  0  0  0  0  0  0  0  0
   -3.8820   19.3020   69.6260 C   0  0  0  0  0  0  0  0  0  0  0  0
   -4.4750   19.5750   68.3340 O   0  0  0  0  0  0  0  0  0  0  0  0
   -6.1140   20.7620   66.5810 F   0  0  0  0  0  0  0  0  0  0  0  0
   -4.4840   20.1280   70.7460 C   0  0  0  0  0  0  0  0  0  0  0  0
   -5.5630   21.0000   70.3660 O   0  0  0  0  0  0  0  0  0  0  0  0
   -4.6810   19.4220   71.9840 O   0  0  0  0  0  0  0  0  0  0  0  0
   -3.8440   20.4490   72.0040 C   0  0  0  0  0  0  0  0  0  0  0  0
   -2.6680   20.5690   72.3450 O   0  0  0  0  0  0  0  0  0  0  0  0
  -10.9980   15.6520   65.9900 O   0  0  0  0  0  0  0  0  0  0  0  0
  -10.6800   14.3640   65.4120 C   0  0  0  0  0  0  0  0  0  0  0  0
  -10.2040   13.4840   66.4270 O   0  0  0  0  0  0  0  0  0  0  0  0
   -9.7500   12.2680   65.9500 C   0  0  0  0  0  0  0  0  0  0  0  0
   -8.6770   11.6830   66.4970 C   0  0  0  0  0  0  0  0  0  0  0  0
  -10.4440   11.5710   64.8270 C   0  0  0  0  0  0  0  0  0  0  0  0
   -7.9340   12.2680   67.4950 O   0  0  0  0  0  0  0  0  0  0  0  0
  -11.6330   12.3350   64.2640 C   0  0  0  0  0  0  0  0  0  0  0  0
  -10.0670   10.5140   64.3550 O   0  0  0  0  0  0  0  0  0  0  0  0
  -11.8970   13.7480   64.7470 C   0  0  0  0  0  0  0  0  0  0  0  0
  -12.3430   11.8420   63.4060 O   0  0  0  0  0  0  0  0  0  0  0  0
  -12.9690   14.3110   64.5850 O   0  0  0  0  0  0  0  0  0  0  0  0
  -12.4730   15.4000   73.7260 C   0  0  0  0  0  0  0  0  0  0  0  0
  -12.1490   16.6980   74.2400 O   0  0  0  0  0  0  0  0  0  0  0  0
  -13.5260   16.2870   74.1370 O   0  0  0  0  0  0  0  0  0  0  0  0
  1 40  1  0  0  0  0
  1  2  2  0  0  0  0
  1  6  1  0  0  0  0
  2  3  1  0  0  0  0
  2 17  1  0  0  0  0
  3  4  1  0  0  0  0
  4  5  2  0  0  0  0
  4 15  1  0  0  0  0
  5  6  1  0  0  0  0
  5  7  1  0  0  0  0
  7  8  1  0  0  0  0
  7 13  1  0  0  0  0
  8  9  1  0  0  0  0
  9 10  2  0  0  0  0
  9 11  1  0  0  0  0
 11 12  1  0  0  0  0
 12 13  1  0  0  0  0
 12 16  1  0  0  0  0
 13 14  2  0  0  0  0
 14 15  1  0  0  0  0
 14 52  1  0  0  0  0
 17 18  2  0  0  0  0
 17 23  1  0  0  0  0
 18 19  1  0  0  0  0
 19 20  1  0  0  0  0
 19 21  2  0  0  0  0
 21 22  1  0  0  0  0
 22 23  2  0  0  0  0
 22 24  1  0  0  0  0
 23 25  1  0  0  0  0
 24 28  2  0  0  0  0
 24 34  1  0  0  0  0
 25 26  2  0  0  0  0
 26 27  1  0  0  0  0
 26 28  1  0  0  0  0
 27 29  2  0  0  0  0
 27 30  1  0  0  0  0
 28 33  1  0  0  0  0
 30 31  2  0  0  0  0
 30 32  1  0  0  0  0
 32 33  1  0  0  0  0
 32 35  1  0  0  0  0
 35 36  1  0  0  0  0
 35 37  1  0  0  0  0
 35 38  1  0  0  0  0
 37 38  1  0  0  0  0
 38 39  2  0  0  0  0
 40 41  1  0  0  0  0
 41 42  1  0  0  0  0
 41 49  1  0  0  0  0
 42 43  1  0  0  0  0
 43 44  2  0  0  0  0
 43 45  1  0  0  0  0
 44 46  1  0  0  0  0
 45 47  1  0  0  0  0
 45 48  2  0  0  0  0
 47 49  1  0  0  0  0
 47 50  2  0  0  0  0
 49 51  2  0  0  0  0
 52 53  1  0  0  0  0
 52 54  1  0  0  0  0
 53 54  1  0  0  0  0
M  CHG  2  15   1  19   1
M  END