
 OpenBabel11242016163D

 54 62  0  0  1  0  0  0  0  0999 V2000
  -10.9910   15.4460   67.3680 C   0  0  0  0  0  0  0  0  0  0  0  0
  -10.6490   16.6220   67.9430 C   0  0  0  0  0  0  0  0  0  0  0  0
  -11.0710   16.9720   69.2340 O   0  0  0  0  0  0  0  0  0  0  0  0
  -11.7990   16.0650   70.0130 C   0  0  0  0  0  0  0  0  0  0  0  0
  -12.2130   14.8890   69.5020 C   0  0  0  0  0  0  0  0  0  0  0  0
  -11.9280   14.4890   68.0800 C   0  0  0  0  0  0  0  0  0  0  0  0
  -12.9460   13.8690   70.3470 C   0  0  0  0  0  0  0  0  0  0  0  0
  -12.1050   12.7340   70.4320 O   0  0  0  0  0  0  0  0  0  0  0  0
  -12.4600   11.7040   71.2470 C   0  0  0  0  0  0  0  0  0  0  0  0
  -11.9210   10.6130   71.1310 O   0  0  0  0  0  0  0  0  0  0  0  0
  -13.4150   11.9690   72.1680 O   0  0  0  0  0  0  0  0  0  0  0  0
  -13.8470   13.2820   72.5190 C   0  0  0  0  0  0  0  0  0  0  0  0
  -13.1540   14.3400   71.7340 C   0  0  0  0  0  0  0  0  0  0  0  0
  -12.7480   15.5500   72.1710 C   0  0  0  0  0  0  0  0  0  0  0  0
  -12.0700   16.4130   71.3220 O   0  0  0  0  0  0  0  0  0  0  0  0
  -15.2130   13.4320   72.1940 O   0  0  0  0  0  0  0  0  0  0  0  0
   -9.7900   17.6600   67.3090 C   0  0  0  0  0  0  0  0  0  0  0  0
  -10.3760   18.6440   66.5080 C   0  0  0  0  0  0  0  0  0  0  0  0
   -9.6410   19.6460   66.0040 N   0  0  0  0  0  0  0  0  0  0  0  0
  -10.2390   20.5880   65.2480 F   0  0  0  0  0  0  0  0  0  0  0  0
   -8.3520   19.7730   66.2500 N   0  0  0  0  0  0  0  0  0  0  0  0
   -7.7330   18.8940   67.0400 C   0  0  0  0  0  0  0  0  0  0  0  0
   -8.4080   17.7800   67.5820 C   0  0  0  0  0  0  0  0  0  0  0  0
   -6.3990   19.1130   67.3910 C   0  0  0  0  0  0  0  0  0  0  0  0
   -7.6820   16.8910   68.4050 C   0  0  0  0  0  0  0  0  0  0  0  0
   -6.3570   17.1710   68.7720 C   0  0  0  0  0  0  0  0  0  0  0  0
   -5.6820   16.3260   69.7600 C   0  0  0  0  0  0  0  0  0  0  0  0
   -5.7170   18.3000   68.2970 C   0  0  0  0  0  0  0  0  0  0  0  0
   -6.2380   15.3270   70.1860 O   0  0  0  0  0  0  0  0  0  0  0  0
   -4.3230   16.7860   70.2340 C   0  0  0  0  0  0  0  0  0  0  0  0
   -3.5500   15.9920   70.7430 O   0  0  0  0  0  0  0  0  0  0  0  0
   -4.0690   18.2650   70.0340 C   0  0  0  0  0  0  0  0  0  0  0  0
   -4.4920   18.7200   68.7320 O   0  0  0  0  0  0  0  0  0  0  0  0
   -5.7830   20.2050   66.9130 F   0  0  0  0  0  0  0  0  0  0  0  0
   -4.6270   19.0880   71.1750 C   0  0  0  0  0  0  0  0  0  0  0  0
   -5.4550   18.3830   72.1170 O   0  0  0  0  0  0  0  0  0  0  0  0
   -3.7380   20.0670   71.7380 O   0  0  0  0  0  0  0  0  0  0  0  0
   -4.8390   20.5250   71.1350 C   0  0  0  0  0  0  0  0  0  0  0  0
   -5.0110   21.3080   70.2140 O   0  0  0  0  0  0  0  0  0  0  0  0
  -10.5570   15.1060   66.0470 O   0  0  0  0  0  0  0  0  0  0  0  0
  -10.3160   13.7980   65.7390 C   0  0  0  0  0  0  0  0  0  0  0  0
   -9.3600   13.1090   66.2660 O   0  0  0  0  0  0  0  0  0  0  0  0
   -9.1880   11.8020   65.9160 C   0  0  0  0  0  0  0  0  0  0  0  0
   -8.2500   11.1590   66.6290 C   0  0  0  0  0  0  0  0  0  0  0  0
   -9.9630   11.0840   64.8690 C   0  0  0  0  0  0  0  0  0  0  0  0
   -7.5270   11.7660   67.6350 O   0  0  0  0  0  0  0  0  0  0  0  0
  -10.7660   12.0460   64.0350 C   0  0  0  0  0  0  0  0  0  0  0  0
   -9.9970    9.8830   64.7030 O   0  0  0  0  0  0  0  0  0  0  0  0
  -11.2670   13.2940   64.6960 C   0  0  0  0  0  0  0  0  0  0  0  0
  -10.8230   11.9420   62.8260 O   0  0  0  0  0  0  0  0  0  0  0  0
  -12.3070   13.8570   64.4360 O   0  0  0  0  0  0  0  0  0  0  0  0
  -12.9550   16.0360   73.5540 C   0  0  0  0  0  0  0  0  0  0  0  0
  -12.2180   15.4770   74.6480 O   0  0  0  0  0  0  0  0  0  0  0  0
  -11.9410   16.8210   74.2050 O   0  0  0  0  0  0  0  0  0  0  0  0
  1 40  1  0  0  0  0
  1  2  2  0  0  0  0
  1  6  1  0  0  0  0
  2  3  1  0  0  0  0
  2 17  1  0  0  0  0
  3  4  1  0  0  0  0
  4  5  2  0  0  0  0
  4 15  1  0  0  0  0
  5  6  1  0  0  0  0
  5  7  1  0  0  0  0
  7  8  1  0  0  0  0
  7 13  1  0  0  0  0
  8  9  1  0  0  0  0
  9 10  2  0  0  0  0
  9 11  1  0  0  0  0
 11 12  1  0  0  0  0
 12 13  1  0  0  0  0
 12 16  1  0  0  0  0
 13 14  2  0  0  0  0
 14 15  1  0  0  0  0
 14 52  1  0  0  0  0
 17 18  2  0  0  0  0
 17 23  1  0  0  0  0
 18 19  1  0  0  0  0
 19 20  1  0  0  0  0
 19 21  2  0  0  0  0
 21 22  1  0  0  0  0
 22 23  2  0  0  0  0
 22 24  1  0  0  0  0
 23 25  1  0  0  0  0
 24 28  2  0  0  0  0
 24 34  1  0  0  0  0
 25 26  2  0  0  0  0
 26 27  1  0  0  0  0
 26 28  1  0  0  0  0
 27 29  2  0  0  0  0
 27 30  1  0  0  0  0
 28 33  1  0  0  0  0
 30 31  2  0  0  0  0
 30 32  1  0  0  0  0
 32 33  1  0  0  0  0
 32 35  1  0  0  0  0
 35 36  1  0  0  0  0
 35 37  1  0  0  0  0
 35 38  1  0  0  0  0
 37 38  1  0  0  0  0
 38 39  2  0  0  0  0
 40 41  1  0  0  0  0
 41 42  2  0  0  0  0
 41 49  1  0  0  0  0
 42 43  1  0  0  0  0
 43 44  2  0  0  0  0
 43 45  1  0  0  0  0
 44 46  1  0  0  0  0
 45 47  1  0  0  0  0
 45 48  2  0  0  0  0
 47 49  1  0  0  0  0
 47 50  2  0  0  0  0
 49 51  2  0  0  0  0
 52 53  1  0  0  0  0
 52 54  1  0  0  0  0
 53 54  1  0  0  0  0
M  CHG  3  42   1  15   1  19   1
M  END