
 OpenBabel11252020443D

 54 62  0  0  1  0  0  0  0  0999 V2000
  -10.9380   15.8740   67.4460 C   0  0  0  0  0  0  0  0  0  0  0  0
  -10.4790   16.9490   68.1350 C   0  0  0  0  0  0  0  0  0  0  0  0
  -10.8260   17.1200   69.5020 O   0  0  0  0  0  0  0  0  0  0  0  0
  -11.5090   16.0980   70.2070 C   0  0  0  0  0  0  0  0  0  0  0  0
  -12.0050   15.0330   69.5580 C   0  0  0  0  0  0  0  0  0  0  0  0
  -11.8590   14.8620   68.0900 C   0  0  0  0  0  0  0  0  0  0  0  0
  -12.6860   13.8830   70.2620 C   0  0  0  0  0  0  0  0  0  0  0  0
  -11.8560   12.7470   70.0900 O   0  0  0  0  0  0  0  0  0  0  0  0
  -12.2830   11.5800   70.6450 C   0  0  0  0  0  0  0  0  0  0  0  0
  -11.8730   10.5040   70.2440 O   0  0  0  0  0  0  0  0  0  0  0  0
  -13.1810   11.7030   71.6490 O   0  0  0  0  0  0  0  0  0  0  0  0
  -13.4010   12.9190   72.3590 C   0  0  0  0  0  0  0  0  0  0  0  0
  -12.7490   14.0930   71.7190 C   0  0  0  0  0  0  0  0  0  0  0  0
  -12.2440   15.1900   72.3230 C   0  0  0  0  0  0  0  0  0  0  0  0
  -11.6400   16.1970   71.5800 O   0  0  0  0  0  0  0  0  0  0  0  0
  -14.7800   13.2240   72.3180 O   0  0  0  0  0  0  0  0  0  0  0  0
   -9.6280   18.0630   67.5130 C   0  0  0  0  0  0  0  0  0  0  0  0
  -10.2020   18.9210   66.5480 C   0  0  0  0  0  0  0  0  0  0  0  0
   -9.5140   19.9510   66.0490 N   0  0  0  0  0  0  0  0  0  0  0  0
  -10.0680   20.7110   65.0820 F   0  0  0  0  0  0  0  0  0  0  0  0
   -8.3110   20.2560   66.4680 N   0  0  0  0  0  0  0  0  0  0  0  0
   -7.6960   19.4460   67.3420 C   0  0  0  0  0  0  0  0  0  0  0  0
   -8.3050   18.3050   67.8640 N   0  0  0  0  0  0  0  0  0  0  0  0
   -6.3570   19.7570   67.7030 C   0  0  0  0  0  0  0  0  0  0  0  0
   -7.5620   17.4760   68.6450 C   0  0  0  0  0  0  0  0  0  0  0  0
   -6.2540   17.7670   69.0100 C   0  0  0  0  0  0  0  0  0  0  0  0
   -5.5480   16.8660   69.9070 C   0  0  0  0  0  0  0  0  0  0  0  0
   -5.6490   18.9190   68.5770 C   0  0  0  0  0  0  0  0  0  0  0  0
   -6.1370   15.8820   70.3240 O   0  0  0  0  0  0  0  0  0  0  0  0
   -4.1370   17.2610   70.2790 C   0  0  0  0  0  0  0  0  0  0  0  0
   -3.3140   16.3960   70.5200 O   0  0  0  0  0  0  0  0  0  0  0  0
   -3.8940   18.7550   70.2240 C   0  0  0  0  0  0  0  0  0  0  0  0
   -4.3990   19.3120   68.9810 O   0  0  0  0  0  0  0  0  0  0  0  0
   -5.7920   21.0130   67.3970 N   0  0  0  0  0  0  0  0  0  0  0  0
   -4.4290   19.4800   71.4430 C   0  0  0  0  0  0  0  0  0  0  0  0
   -5.4920   18.8340   72.1550 O   0  0  0  0  0  0  0  0  0  0  0  0
   -3.4320   20.1640   72.2470 O   0  0  0  0  0  0  0  0  0  0  0  0
   -4.3550   20.9140   71.6520 C   0  0  0  0  0  0  0  0  0  0  0  0
   -4.3190   21.8400   70.8460 O   0  0  0  0  0  0  0  0  0  0  0  0
  -10.6440   15.6840   66.1040 O   0  0  0  0  0  0  0  0  0  0  0  0
  -10.5520   14.3180   65.6060 C   0  0  0  0  0  0  0  0  0  0  0  0
  -10.5450   13.3350   66.6360 O   0  0  0  0  0  0  0  0  0  0  0  0
  -10.1880   12.0910   66.1360 C   0  0  0  0  0  0  0  0  0  0  0  0
   -9.2750   11.3260   66.7490 C   0  0  0  0  0  0  0  0  0  0  0  0
  -10.8000   11.6170   64.8580 C   0  0  0  0  0  0  0  0  0  0  0  0
   -8.6070   11.7110   67.8870 O   0  0  0  0  0  0  0  0  0  0  0  0
  -11.8150   12.6020   64.2800 C   0  0  0  0  0  0  0  0  0  0  0  0
  -10.4370   10.6250   64.2570 O   0  0  0  0  0  0  0  0  0  0  0  0
  -11.7680   14.0460   64.7510 C   0  0  0  0  0  0  0  0  0  0  0  0
  -12.6000   12.2770   63.4080 O   0  0  0  0  0  0  0  0  0  0  0  0
  -12.5770   14.9070   64.4330 O   0  0  0  0  0  0  0  0  0  0  0  0
  -12.2520   15.4020   73.7890 C   0  0  0  0  0  0  0  0  0  0  0  0
  -12.0810   16.7120   74.3390 O   0  0  0  0  0  0  0  0  0  0  0  0
  -13.3690   16.0690   74.4050 O   0  0  0  0  0  0  0  0  0  0  0  0
  1 40  1  0  0  0  0
  1  2  2  0  0  0  0
  1  6  1  0  0  0  0
  2  3  1  0  0  0  0
  2 17  1  0  0  0  0
  3  4  1  0  0  0  0
  4  5  2  0  0  0  0
  4 15  1  0  0  0  0
  5  6  1  0  0  0  0
  5  7  1  0  0  0  0
  7  8  1  0  0  0  0
  7 13  1  0  0  0  0
  8  9  1  0  0  0  0
  9 10  2  0  0  0  0
  9 11  1  0  0  0  0
 11 12  1  0  0  0  0
 12 13  1  0  0  0  0
 12 16  1  0  0  0  0
 13 14  2  0  0  0  0
 14 15  1  0  0  0  0
 14 52  1  0  0  0  0
 17 18  2  0  0  0  0
 17 23  1  0  0  0  0
 18 19  1  0  0  0  0
 19 20  1  0  0  0  0
 19 21  2  0  0  0  0
 21 22  1  0  0  0  0
 22 23  2  0  0  0  0
 22 24  1  0  0  0  0
 23 25  1  0  0  0  0
 24 28  2  0  0  0  0
 24 34  1  0  0  0  0
 25 26  2  0  0  0  0
 26 27  1  0  0  0  0
 26 28  1  0  0  0  0
 27 29  2  0  0  0  0
 27 30  1  0  0  0  0
 28 33  1  0  0  0  0
 30 31  2  0  0  0  0
 30 32  1  0  0  0  0
 32 33  1  0  0  0  0
 32 35  1  0  0  0  0
 35 36  1  0  0  0  0
 35 37  1  0  0  0  0
 35 38  1  0  0  0  0
 37 38  1  0  0  0  0
 38 39  2  0  0  0  0
 40 41  1  0  0  0  0
 41 42  1  0  0  0  0
 41 49  1  0  0  0  0
 42 43  1  0  0  0  0
 43 44  2  0  0  0  0
 43 45  1  0  0  0  0
 44 46  1  0  0  0  0
 45 47  1  0  0  0  0
 45 48  2  0  0  0  0
 47 49  1  0  0  0  0
 47 50  2  0  0  0  0
 49 51  2  0  0  0  0
 52 53  1  0  0  0  0
 52 54  1  0  0  0  0
 53 54  1  0  0  0  0
M  CHG  3  15   1  19   1  23   1
M  END