
 OpenBabel10282009203D

 51 59  0  0  1  0  0  0  0  0999 V2000
  -10.5530   15.6650   67.4400 C   0  0  0  0  0  0  0  0  0  0  0  0
  -10.5500   16.8420   68.1080 C   0  0  0  0  0  0  0  0  0  0  0  0
  -11.1220   17.0130   69.3730 O   0  0  0  0  0  0  0  0  0  0  0  0
  -11.7350   15.9320   69.9910 C   0  0  0  0  0  0  0  0  0  0  0  0
  -11.7980   14.7260   69.4040 C   0  0  0  0  0  0  0  0  0  0  0  0
  -11.2160   14.4670   68.0650 C   0  0  0  0  0  0  0  0  0  0  0  0
  -12.5170   13.5830   70.0620 C   0  0  0  0  0  0  0  0  0  0  0  0
  -11.6510   12.4520   70.0530 O   0  0  0  0  0  0  0  0  0  0  0  0
  -12.2330   11.2960   70.4620 C   0  0  0  0  0  0  0  0  0  0  0  0
  -11.8380   10.2010   70.0900 O   0  0  0  0  0  0  0  0  0  0  0  0
  -13.3080   11.4620   71.2780 O   0  0  0  0  0  0  0  0  0  0  0  0
  -13.3050   12.5880   72.1740 C   0  0  0  0  0  0  0  0  0  0  0  0
  -12.8900   13.8360   71.4790 C   0  0  0  0  0  0  0  0  0  0  0  0
  -12.7750   15.0690   72.0280 C   0  0  0  0  0  0  0  0  0  0  0  0
  -12.2760   16.1070   71.2450 N   0  0  0  0  0  0  0  0  0  0  0  0
   -9.9320   18.0660   67.5620 C   0  0  0  0  0  0  0  0  0  0  0  0
  -10.7350   18.7810   66.7430 N   0  0  0  0  0  0  0  0  0  0  0  0
  -10.1940   19.8770   66.2060 C   0  0  0  0  0  0  0  0  0  0  0  0
   -8.9500   20.3300   66.4170 N   0  0  0  0  0  0  0  0  0  0  0  0
   -8.1730   19.6170   67.2340 C   0  0  0  0  0  0  0  0  0  0  0  0
   -8.6110   18.4420   67.8630 C   0  0  0  0  0  0  0  0  0  0  0  0
   -6.8720   20.0580   67.4660 C   0  0  0  0  0  0  0  0  0  0  0  0
   -7.7230   17.7390   68.7140 C   0  0  0  0  0  0  0  0  0  0  0  0
   -6.4200   18.2070   68.9210 C   0  0  0  0  0  0  0  0  0  0  0  0
   -5.9920   19.3740   68.3090 C   0  0  0  0  0  0  0  0  0  0  0  0
   -5.4880   17.4370   69.7490 C   0  0  0  0  0  0  0  0  0  0  0  0
   -4.7450   19.9150   68.4420 O   0  0  0  0  0  0  0  0  0  0  0  0
   -3.9520   19.4550   69.5390 C   0  0  0  0  0  0  0  0  0  0  0  0
   -4.0960   17.9970   69.9120 C   0  0  0  0  0  0  0  0  0  0  0  0
   -3.1880   17.3100   70.3610 O   0  0  0  0  0  0  0  0  0  0  0  0
   -5.8070   16.3730   70.2580 O   0  0  0  0  0  0  0  0  0  0  0  0
   -4.1670   20.3280   70.7340 C   0  0  0  0  0  0  0  0  0  0  0  0
   -5.2380   21.2980   70.6420 O   0  0  0  0  0  0  0  0  0  0  0  0
   -4.0480   19.6540   71.9890 O   0  0  0  0  0  0  0  0  0  0  0  0
   -3.1360   20.6140   71.7340 C   0  0  0  0  0  0  0  0  0  0  0  0
   -2.8990   21.6310   72.3410 O   0  0  0  0  0  0  0  0  0  0  0  0
   -9.9510   15.5390   66.1880 O   0  0  0  0  0  0  0  0  0  0  0  0
   -9.8560   14.2310   65.6000 C   0  0  0  0  0  0  0  0  0  0  0  0
   -9.6320   13.2260   66.5920 O   0  0  0  0  0  0  0  0  0  0  0  0
   -9.4840   11.9300   66.1480 C   0  0  0  0  0  0  0  0  0  0  0  0
   -8.7330   11.0630   66.8310 C   0  0  0  0  0  0  0  0  0  0  0  0
  -10.2220   11.4310   64.9600 C   0  0  0  0  0  0  0  0  0  0  0  0
   -8.0510   11.4430   67.9310 F   0  0  0  0  0  0  0  0  0  0  0  0
  -11.0860   12.4810   64.2890 C   0  0  0  0  0  0  0  0  0  0  0  0
  -10.1470   10.2880   64.5430 O   0  0  0  0  0  0  0  0  0  0  0  0
  -11.1410   13.8720   64.8730 C   0  0  0  0  0  0  0  0  0  0  0  0
  -11.6950   12.2220   63.2630 O   0  0  0  0  0  0  0  0  0  0  0  0
  -12.1340   14.5700   64.7420 O   0  0  0  0  0  0  0  0  0  0  0  0
  -13.0990   15.3860   73.4360 C   0  0  0  0  0  0  0  0  0  0  0  0
  -12.1790   15.1330   74.5100 O   0  0  0  0  0  0  0  0  0  0  0  0
  -12.4900   16.4860   74.1280 O   0  0  0  0  0  0  0  0  0  0  0  0
  1 37  1  0  0  0  0
  1  2  2  0  0  0  0
  1  6  1  0  0  0  0
  2  3  1  0  0  0  0
  2 16  1  0  0  0  0
  3  4  1  0  0  0  0
  4  5  2  0  0  0  0
  4 15  1  0  0  0  0
  5  6  1  0  0  0  0
  5  7  1  0  0  0  0
  7  8  1  0  0  0  0
  7 13  1  0  0  0  0
  8  9  1  0  0  0  0
  9 10  2  0  0  0  0
  9 11  1  0  0  0  0
 11 12  1  0  0  0  0
 12 13  1  0  0  0  0
 13 14  2  0  0  0  0
 14 15  1  0  0  0  0
 14 49  1  0  0  0  0
 16 17  2  0  0  0  0
 16 21  1  0  0  0  0
 17 18  1  0  0  0  0
 18 19  2  0  0  0  0
 19 20  1  0  0  0  0
 20 21  2  0  0  0  0
 20 22  1  0  0  0  0
 21 23  1  0  0  0  0
 22 25  2  0  0  0  0
 23 24  2  0  0  0  0
 24 25  1  0  0  0  0
 24 26  1  0  0  0  0
 25 27  1  0  0  0  0
 26 29  1  0  0  0  0
 26 31  2  0  0  0  0
 27 28  1  0  0  0  0
 28 29  1  0  0  0  0
 28 32  1  0  0  0  0
 29 30  2  0  0  0  0
 32 33  1  0  0  0  0
 32 34  1  0  0  0  0
 32 35  1  0  0  0  0
 34 35  1  0  0  0  0
 35 36  2  0  0  0  0
 37 38  1  0  0  0  0
 38 39  1  0  0  0  0
 38 46  1  0  0  0  0
 39 40  1  0  0  0  0
 40 41  2  0  0  0  0
 40 42  1  0  0  0  0
 41 43  1  0  0  0  0
 42 44  1  0  0  0  0
 42 45  2  0  0  0  0
 44 46  1  0  0  0  0
 44 47  2  0  0  0  0
 46 48  2  0  0  0  0
 49 50  1  0  0  0  0
 49 51  1  0  0  0  0
 50 51  1  0  0  0  0
M  END
