
 OpenBabel09232009323D

 51 59  0  0  1  0  0  0  0  0999 V2000
  -10.3850   15.4090   67.8340 C   0  0  0  0  0  0  0  0  0  0  0  0
  -10.3710   16.6990   68.2420 C   0  0  0  0  0  0  0  0  0  0  0  0
  -11.0620   17.1050   69.3880 O   0  0  0  0  0  0  0  0  0  0  0  0
  -11.6010   16.1120   70.1780 C   0  0  0  0  0  0  0  0  0  0  0  0
  -11.6120   14.8070   69.7410 C   0  0  0  0  0  0  0  0  0  0  0  0
  -11.1040   14.4450   68.5290 O   0  0  0  0  0  0  0  0  0  0  0  0
  -12.1540   13.8500   70.5800 C   0  0  0  0  0  0  0  0  0  0  0  0
  -12.1990   12.5110   70.1830 N   0  0  0  0  0  0  0  0  0  0  0  0
  -12.8150   11.5240   70.8800 C   0  0  0  0  0  0  0  0  0  0  0  0
  -12.8680   10.3810   70.4430 O   0  0  0  0  0  0  0  0  0  0  0  0
  -13.3960   11.8760   72.0530 N   0  0  0  0  0  0  0  0  0  0  0  0
  -13.1530   13.1230   72.7390 C   0  0  0  0  0  0  0  0  0  0  0  0
  -12.6510   14.2080   71.8330 C   0  0  0  0  0  0  0  0  0  0  0  0
  -12.5860   15.5560   72.2230 C   0  0  0  0  0  0  0  0  0  0  0  0
  -12.0820   16.5020   71.3730 N   0  0  0  0  0  0  0  0  0  0  0  0
   -9.5520   17.7980   67.6610 C   0  0  0  0  0  0  0  0  0  0  0  0
  -10.2860   18.6250   66.8760 N   0  0  0  0  0  0  0  0  0  0  0  0
   -9.6800   19.7040   66.4070 C   0  0  0  0  0  0  0  0  0  0  0  0
   -8.4300   20.0410   66.6940 N   0  0  0  0  0  0  0  0  0  0  0  0
   -7.7420   19.1980   67.4610 C   0  0  0  0  0  0  0  0  0  0  0  0
   -8.2330   18.0030   67.9320 N   0  0  0  0  0  0  0  0  0  0  0  0
   -6.4460   19.5730   67.8030 C   0  0  0  0  0  0  0  0  0  0  0  0
   -7.4110   17.1470   68.5870 C   0  0  0  0  0  0  0  0  0  0  0  0
   -6.1290   17.5330   68.9650 C   0  0  0  0  0  0  0  0  0  0  0  0
   -5.6490   18.7700   68.6050 C   0  0  0  0  0  0  0  0  0  0  0  0
   -5.3080   16.6550   69.7910 C   0  0  0  0  0  0  0  0  0  0  0  0
   -4.4350   19.2680   68.9810 O   0  0  0  0  0  0  0  0  0  0  0  0
   -3.8280   18.6840   70.1550 C   0  0  0  0  0  0  0  0  0  0  0  0
   -3.9390   17.1750   70.1730 C   0  0  0  0  0  0  0  0  0  0  0  0
   -3.0430   16.4000   70.4660 O   0  0  0  0  0  0  0  0  0  0  0  0
   -5.7480   15.5820   70.1680 O   0  0  0  0  0  0  0  0  0  0  0  0
   -4.4020   19.2840   71.4010 C   0  0  0  0  0  0  0  0  0  0  0  0
   -5.4130   18.4960   72.0610 O   0  0  0  0  0  0  0  0  0  0  0  0
   -3.4500   19.9160   72.2500 O   0  0  0  0  0  0  0  0  0  0  0  0
   -4.3990   20.7130   71.7190 C   0  0  0  0  0  0  0  0  0  0  0  0
   -5.2490   21.3780   72.2680 O   0  0  0  0  0  0  0  0  0  0  0  0
   -9.6730   14.9940   66.7190 O   0  0  0  0  0  0  0  0  0  0  0  0
   -9.8390   13.5820   66.4580 C   0  0  0  0  0  0  0  0  0  0  0  0
  -10.1490   13.3830   65.0820 O   0  0  0  0  0  0  0  0  0  0  0  0
  -10.2320   12.0700   64.6540 C   0  0  0  0  0  0  0  0  0  0  0  0
  -10.9460   11.7700   63.5680 C   0  0  0  0  0  0  0  0  0  0  0  0
   -9.5080   10.9570   65.3340 C   0  0  0  0  0  0  0  0  0  0  0  0
  -11.6090   12.7240   62.8860 F   0  0  0  0  0  0  0  0  0  0  0  0
   -8.6410   11.4060   66.4950 C   0  0  0  0  0  0  0  0  0  0  0  0
   -9.6090    9.7850   65.0230 O   0  0  0  0  0  0  0  0  0  0  0  0
   -8.5410   12.8780   66.7690 C   0  0  0  0  0  0  0  0  0  0  0  0
   -8.0990   10.6170   67.2480 O   0  0  0  0  0  0  0  0  0  0  0  0
   -7.5130   13.4070   67.1580 O   0  0  0  0  0  0  0  0  0  0  0  0
  -13.0520   16.0050   73.5900 C   0  0  0  0  0  0  0  0  0  0  0  0
  -12.2660   15.5850   74.7160 O   0  0  0  0  0  0  0  0  0  0  0  0
  -12.2530   16.9650   74.2980 O   0  0  0  0  0  0  0  0  0  0  0  0
  1 37  1  0  0  0  0
  1  2  2  0  0  0  0
  1  6  1  0  0  0  0
  2  3  1  0  0  0  0
  2 16  1  0  0  0  0
  3  4  1  0  0  0  0
  4  5  2  0  0  0  0
  4 15  1  0  0  0  0
  5  6  1  0  0  0  0
  5  7  1  0  0  0  0
  7  8  1  0  0  0  0
  7 13  2  0  0  0  0
  8  9  1  0  0  0  0
  9 10  2  0  0  0  0
  9 11  1  0  0  0  0
 11 12  1  0  0  0  0
 12 13  1  0  0  0  0
 13 14  1  0  0  0  0
 14 15  2  0  0  0  0
 14 49  1  0  0  0  0
 16 17  2  0  0  0  0
 16 21  1  0  0  0  0
 17 18  1  0  0  0  0
 18 19  2  0  0  0  0
 19 20  1  0  0  0  0
 20 21  2  0  0  0  0
 20 22  1  0  0  0  0
 21 23  1  0  0  0  0
 22 25  2  0  0  0  0
 23 24  2  0  0  0  0
 24 25  1  0  0  0  0
 24 26  1  0  0  0  0
 25 27  1  0  0  0  0
 26 29  1  0  0  0  0
 26 31  2  0  0  0  0
 27 28  1  0  0  0  0
 28 29  1  0  0  0  0
 28 32  1  0  0  0  0
 29 30  2  0  0  0  0
 32 33  1  0  0  0  0
 32 34  1  0  0  0  0
 32 35  1  0  0  0  0
 34 35  1  0  0  0  0
 35 36  2  0  0  0  0
 37 38  1  0  0  0  0
 38 39  1  0  0  0  0
 38 46  1  0  0  0  0
 39 40  1  0  0  0  0
 40 41  2  0  0  0  0
 40 42  1  0  0  0  0
 41 43  1  0  0  0  0
 42 44  1  0  0  0  0
 42 45  2  0  0  0  0
 44 46  1  0  0  0  0
 44 47  2  0  0  0  0
 46 48  2  0  0  0  0
 49 50  1  0  0  0  0
 49 51  1  0  0  0  0
 50 51  1  0  0  0  0
M  CHG  1  21   1
M  END