
 OpenBabel11212014403D

 53 61  0  0  1  0  0  0  0  0999 V2000
  -11.1160   15.7490   67.2470 C   0  0  0  0  0  0  0  0  0  0  0  0
  -10.7960   16.8670   67.9330 C   0  0  0  0  0  0  0  0  0  0  0  0
  -11.1190   17.0610   69.2710 O   0  0  0  0  0  0  0  0  0  0  0  0
  -11.8200   16.0740   69.9570 C   0  0  0  0  0  0  0  0  0  0  0  0
  -12.1290   14.8970   69.3830 C   0  0  0  0  0  0  0  0  0  0  0  0
  -11.7850   14.5960   67.9580 C   0  0  0  0  0  0  0  0  0  0  0  0
  -12.8570   13.8270   70.1660 C   0  0  0  0  0  0  0  0  0  0  0  0
  -12.0530   12.6490   70.0780 O   0  0  0  0  0  0  0  0  0  0  0  0
  -12.1700   11.6200   70.9510 C   0  0  0  0  0  0  0  0  0  0  0  0
  -11.5570   10.5750   70.7760 O   0  0  0  0  0  0  0  0  0  0  0  0
  -12.9500   11.8070   72.0390 O   0  0  0  0  0  0  0  0  0  0  0  0
  -13.6770   13.0000   72.2900 C   0  0  0  0  0  0  0  0  0  0  0  0
  -13.0750   14.1620   71.6040 C   0  0  0  0  0  0  0  0  0  0  0  0
  -12.7410   15.3720   72.1190 C   0  0  0  0  0  0  0  0  0  0  0  0
  -12.2300   16.3400   71.2500 N   0  0  0  0  0  0  0  0  0  0  0  0
  -11.2510   17.1470   71.9130 F   0  0  0  0  0  0  0  0  0  0  0  0
  -15.0020   12.8480   71.8080 O   0  0  0  0  0  0  0  0  0  0  0  0
  -10.0250   17.9760   67.3460 C   0  0  0  0  0  0  0  0  0  0  0  0
  -10.6570   18.7870   66.4150 C   0  0  0  0  0  0  0  0  0  0  0  0
  -10.0520   19.8340   65.8280 N   0  0  0  0  0  0  0  0  0  0  0  0
   -8.7640   20.1340   66.1620 N   0  0  0  0  0  0  0  0  0  0  0  0
   -8.0940   19.3960   67.0580 C   0  0  0  0  0  0  0  0  0  0  0  0
   -8.6870   18.2770   67.6810 C   0  0  0  0  0  0  0  0  0  0  0  0
   -6.7900   19.7520   67.3870 C   0  0  0  0  0  0  0  0  0  0  0  0
   -7.9150   17.5270   68.5960 C   0  0  0  0  0  0  0  0  0  0  0  0
   -6.6080   17.9120   68.9110 C   0  0  0  0  0  0  0  0  0  0  0  0
   -6.0510   19.0390   68.3290 C   0  0  0  0  0  0  0  0  0  0  0  0
   -5.8170   17.1280   69.8650 C   0  0  0  0  0  0  0  0  0  0  0  0
   -4.8020   19.5170   68.6080 O   0  0  0  0  0  0  0  0  0  0  0  0
   -4.2200   19.1020   69.8500 C   0  0  0  0  0  0  0  0  0  0  0  0
   -4.4410   17.6500   70.2020 C   0  0  0  0  0  0  0  0  0  0  0  0
   -3.6270   16.9440   70.7800 O   0  0  0  0  0  0  0  0  0  0  0  0
   -6.2580   16.1120   70.3800 O   0  0  0  0  0  0  0  0  0  0  0  0
   -4.6560   20.0080   70.9710 C   0  0  0  0  0  0  0  0  0  0  0  0
   -6.0770   20.2290   71.1210 O   0  0  0  0  0  0  0  0  0  0  0  0
   -3.9690   19.8490   72.2150 O   0  0  0  0  0  0  0  0  0  0  0  0
   -3.7400   20.9840   71.5380 C   0  0  0  0  0  0  0  0  0  0  0  0
   -2.6920   21.4650   71.1450 O   0  0  0  0  0  0  0  0  0  0  0  0
  -10.7660   15.6100   65.9050 O   0  0  0  0  0  0  0  0  0  0  0  0
  -10.7310   14.2770   65.3850 C   0  0  0  0  0  0  0  0  0  0  0  0
  -10.6660   13.3050   66.4460 O   0  0  0  0  0  0  0  0  0  0  0  0
  -10.4930   12.0050   65.9920 C   0  0  0  0  0  0  0  0  0  0  0  0
  -10.0510   11.0410   66.8040 C   0  0  0  0  0  0  0  0  0  0  0  0
  -10.8890   11.6340   64.6100 C   0  0  0  0  0  0  0  0  0  0  0  0
   -9.7550   11.2230   68.1290 O   0  0  0  0  0  0  0  0  0  0  0  0
  -12.0090   12.5210   64.1140 C   0  0  0  0  0  0  0  0  0  0  0  0
  -10.3510   10.7910   63.9190 O   0  0  0  0  0  0  0  0  0  0  0  0
  -11.9610   13.9780   64.5270 C   0  0  0  0  0  0  0  0  0  0  0  0
  -12.9410   12.0530   63.4850 O   0  0  0  0  0  0  0  0  0  0  0  0
  -12.8160   14.7710   64.1680 O   0  0  0  0  0  0  0  0  0  0  0  0
  -12.9300   15.8060   73.5260 C   0  0  0  0  0  0  0  0  0  0  0  0
  -12.1880   15.1900   74.5950 O   0  0  0  0  0  0  0  0  0  0  0  0
  -11.9670   16.5720   74.2730 O   0  0  0  0  0  0  0  0  0  0  0  0
  1 39  1  0  0  0  0
  1  2  2  0  0  0  0
  1  6  1  0  0  0  0
  2  3  1  0  0  0  0
  2 18  1  0  0  0  0
  3  4  1  0  0  0  0
  4  5  2  0  0  0  0
  4 15  1  0  0  0  0
  5  6  1  0  0  0  0
  5  7  1  0  0  0  0
  7  8  1  0  0  0  0
  7 13  1  0  0  0  0
  8  9  1  0  0  0  0
  9 10  2  0  0  0  0
  9 11  1  0  0  0  0
 11 12  1  0  0  0  0
 12 13  1  0  0  0  0
 12 17  1  0  0  0  0
 13 14  2  0  0  0  0
 14 15  1  0  0  0  0
 14 51  1  0  0  0  0
 15 16  1  0  0  0  0
 18 19  2  0  0  0  0
 18 23  1  0  0  0  0
 19 20  1  0  0  0  0
 20 21  2  0  0  0  0
 21 22  1  0  0  0  0
 22 23  2  0  0  0  0
 22 24  1  0  0  0  0
 23 25  1  0  0  0  0
 24 27  2  0  0  0  0
 25 26  2  0  0  0  0
 26 27  1  0  0  0  0
 26 28  1  0  0  0  0
 27 29  1  0  0  0  0
 28 31  1  0  0  0  0
 28 33  2  0  0  0  0
 29 30  1  0  0  0  0
 30 31  1  0  0  0  0
 30 34  1  0  0  0  0
 31 32  2  0  0  0  0
 34 35  1  0  0  0  0
 34 36  1  0  0  0  0
 34 37  1  0  0  0  0
 36 37  1  0  0  0  0
 37 38  2  0  0  0  0
 39 40  1  0  0  0  0
 40 41  1  0  0  0  0
 40 48  1  0  0  0  0
 41 42  1  0  0  0  0
 42 43  2  0  0  0  0
 42 44  1  0  0  0  0
 43 45  1  0  0  0  0
 44 46  1  0  0  0  0
 44 47  2  0  0  0  0
 46 48  1  0  0  0  0
 46 49  2  0  0  0  0
 48 50  2  0  0  0  0
 51 52  1  0  0  0  0
 51 53  1  0  0  0  0
 52 53  1  0  0  0  0
M  END
