
 OpenBabel11222002093D

 54 62  0  0  1  0  0  0  0  0999 V2000
  -10.6340   15.3460   67.2630 C   0  0  0  0  0  0  0  0  0  0  0  0
  -10.4100   16.5360   67.8930 C   0  0  0  0  0  0  0  0  0  0  0  0
  -10.6430   16.6720   69.2620 O   0  0  0  0  0  0  0  0  0  0  0  0
  -10.9700   15.5710   70.0850 C   0  0  0  0  0  0  0  0  0  0  0  0
  -11.7630   14.5360   69.3310 C   0  0  0  0  0  0  0  0  0  0  0  0
  -11.0020   14.1350   68.0910 C   0  0  0  0  0  0  0  0  0  0  0  0
  -12.0630   13.4010   70.2650 C   0  0  0  0  0  0  0  0  0  0  0  0
  -12.0690   12.1800   69.8530 N   0  0  0  0  0  0  0  0  0  0  0  0
  -12.5370   11.2720   70.7530 C   0  0  0  0  0  0  0  0  0  0  0  0
  -11.9970   10.1170   70.7900 N   0  0  0  0  0  0  0  0  0  0  0  0
  -13.5450   11.5460   71.6290 N   0  0  0  0  0  0  0  0  0  0  0  0
  -13.5400   12.7680   72.0320 C   0  0  0  0  0  0  0  0  0  0  0  0
  -12.4590   13.7550   71.6780 C   0  0  0  0  0  0  0  0  0  0  0  0
  -12.7450   15.2690   71.7370 C   0  0  0  0  0  0  0  0  0  0  0  0
  -11.6230   16.0150   71.2550 O   0  0  0  0  0  0  0  0  0  0  0  0
  -14.5150   13.1810   72.8340 O   0  0  0  0  0  0  0  0  0  0  0  0
   -9.8820   17.8410   67.2920 C   0  0  0  0  0  0  0  0  0  0  0  0
  -10.6700   18.6510   66.4720 C   0  0  0  0  0  0  0  0  0  0  0  0
  -10.1260   19.7940   65.9160 C   0  0  0  0  0  0  0  0  0  0  0  0
  -10.9180   20.5680   65.1640 F   0  0  0  0  0  0  0  0  0  0  0  0
   -8.8520   20.1900   66.0830 N   0  0  0  0  0  0  0  0  0  0  0  0
   -8.0700   19.4490   66.8870 C   0  0  0  0  0  0  0  0  0  0  0  0
   -8.5480   18.2730   67.5240 C   0  0  0  0  0  0  0  0  0  0  0  0
   -6.7260   19.8420   67.1250 C   0  0  0  0  0  0  0  0  0  0  0  0
   -7.7550   17.5910   68.3640 N   0  0  0  0  0  0  0  0  0  0  0  0
   -6.5230   18.0450   68.6390 C   0  0  0  0  0  0  0  0  0  0  0  0
   -5.8470   17.2970   69.7000 C   0  0  0  0  0  0  0  0  0  0  0  0
   -5.9520   19.1580   68.0740 C   0  0  0  0  0  0  0  0  0  0  0  0
   -6.4150   16.3930   70.3140 O   0  0  0  0  0  0  0  0  0  0  0  0
   -4.4560   17.7840   70.0340 C   0  0  0  0  0  0  0  0  0  0  0  0
   -3.6830   17.0620   70.6430 O   0  0  0  0  0  0  0  0  0  0  0  0
   -4.2140   19.2450   69.6990 C   0  0  0  0  0  0  0  0  0  0  0  0
   -4.7050   19.6190   68.3960 O   0  0  0  0  0  0  0  0  0  0  0  0
   -6.2490   21.0750   66.6070 N   0  0  0  0  0  0  0  0  0  0  0  0
   -4.7580   20.1640   70.7600 C   0  0  0  0  0  0  0  0  0  0  0  0
   -6.1280   20.5830   70.5940 O   0  0  0  0  0  0  0  0  0  0  0  0
   -4.3750   19.8110   72.0940 O   0  0  0  0  0  0  0  0  0  0  0  0
   -3.9420   21.0090   71.6390 C   0  0  0  0  0  0  0  0  0  0  0  0
   -4.1300   22.1040   72.1040 O   0  0  0  0  0  0  0  0  0  0  0  0
  -10.4500   15.1540   65.8980 O   0  0  0  0  0  0  0  0  0  0  0  0
   -9.6340   14.0610   65.4010 C   0  0  0  0  0  0  0  0  0  0  0  0
   -8.6900   13.6790   66.4040 O   0  0  0  0  0  0  0  0  0  0  0  0
   -8.7980   12.4680   67.0530 C   0  0  0  0  0  0  0  0  0  0  0  0
   -7.9370   12.1130   68.0160 C   0  0  0  0  0  0  0  0  0  0  0  0
   -9.7780   11.4300   66.6680 C   0  0  0  0  0  0  0  0  0  0  0  0
   -6.9000   12.9060   68.4270 O   0  0  0  0  0  0  0  0  0  0  0  0
  -10.2600   11.5930   65.2620 C   0  0  0  0  0  0  0  0  0  0  0  0
  -10.1660   10.5210   67.3800 O   0  0  0  0  0  0  0  0  0  0  0  0
  -10.5120   12.9750   64.7600 C   0  0  0  0  0  0  0  0  0  0  0  0
  -10.3910   10.6280   64.5280 O   0  0  0  0  0  0  0  0  0  0  0  0
  -11.3770   13.1650   63.9150 O   0  0  0  0  0  0  0  0  0  0  0  0
  -13.1340   15.7500   73.1070 C   0  0  0  0  0  0  0  0  0  0  0  0
  -12.3150   15.2610   74.1690 O   0  0  0  0  0  0  0  0  0  0  0  0
  -12.2180   16.6410   73.7450 O   0  0  0  0  0  0  0  0  0  0  0  0
  1 40  1  0  0  0  0
  1  2  2  0  0  0  0
  1  6  1  0  0  0  0
  2  3  1  0  0  0  0
  2 17  1  0  0  0  0
  3  4  1  0  0  0  0
  4  5  1  0  0  0  0
  4 15  1  0  0  0  0
  5  6  1  0  0  0  0
  5  7  1  0  0  0  0
  7  8  2  0  0  0  0
  7 13  1  0  0  0  0
  8  9  1  0  0  0  0
  9 10  2  0  0  0  0
  9 11  1  0  0  0  0
 11 12  2  0  0  0  0
 12 13  1  0  0  0  0
 12 16  1  0  0  0  0
 13 14  1  0  0  0  0
 14 15  1  0  0  0  0
 14 52  1  0  0  0  0
 17 18  2  0  0  0  0
 17 23  1  0  0  0  0
 18 19  1  0  0  0  0
 19 20  1  0  0  0  0
 19 21  2  0  0  0  0
 21 22  1  0  0  0  0
 22 23  2  0  0  0  0
 22 24  1  0  0  0  0
 23 25  1  0  0  0  0
 24 28  2  0  0  0  0
 24 34  1  0  0  0  0
 25 26  2  0  0  0  0
 26 27  1  0  0  0  0
 26 28  1  0  0  0  0
 27 29  2  0  0  0  0
 27 30  1  0  0  0  0
 28 33  1  0  0  0  0
 30 31  2  0  0  0  0
 30 32  1  0  0  0  0
 32 33  1  0  0  0  0
 32 35  1  0  0  0  0
 35 36  1  0  0  0  0
 35 37  1  0  0  0  0
 35 38  1  0  0  0  0
 37 38  1  0  0  0  0
 38 39  2  0  0  0  0
 40 41  1  0  0  0  0
 41 42  1  0  0  0  0
 41 49  1  0  0  0  0
 42 43  1  0  0  0  0
 43 44  2  0  0  0  0
 43 45  1  0  0  0  0
 44 46  1  0  0  0  0
 45 47  1  0  0  0  0
 45 48  2  0  0  0  0
 47 49  1  0  0  0  0
 47 50  2  0  0  0  0
 49 51  2  0  0  0  0
 52 53  1  0  0  0  0
 52 54  1  0  0  0  0
 53 54  1  0  0  0  0
M  CHG  1  15   1
M  END