
 OpenBabel11262000443D

 54 62  0  0  1  0  0  0  0  0999 V2000
  -11.0810   15.9560   67.3280 C   0  0  0  0  0  0  0  0  0  0  0  0
  -10.5860   16.9840   68.0410 C   0  0  0  0  0  0  0  0  0  0  0  0
  -10.7810   17.1330   69.4190 O   0  0  0  0  0  0  0  0  0  0  0  0
  -11.4850   16.1420   70.1320 C   0  0  0  0  0  0  0  0  0  0  0  0
  -12.0200   15.0820   69.4950 C   0  0  0  0  0  0  0  0  0  0  0  0
  -11.9060   14.8850   68.0060 C   0  0  0  0  0  0  0  0  0  0  0  0
  -12.7690   13.9930   70.2340 C   0  0  0  0  0  0  0  0  0  0  0  0
  -12.0650   12.7820   69.9970 O   0  0  0  0  0  0  0  0  0  0  0  0
  -12.3390   11.6970   70.7490 C   0  0  0  0  0  0  0  0  0  0  0  0
  -11.8670   10.5600   70.4160 N   0  0  0  0  0  0  0  0  0  0  0  0
  -13.0490   11.8430   71.8760 O   0  0  0  0  0  0  0  0  0  0  0  0
  -13.4900   13.1020   72.3570 C   0  0  0  0  0  0  0  0  0  0  0  0
  -12.7870   14.2350   71.6950 C   0  0  0  0  0  0  0  0  0  0  0  0
  -12.2370   15.3200   72.2770 C   0  0  0  0  0  0  0  0  0  0  0  0
  -11.6030   16.2820   71.5040 O   0  0  0  0  0  0  0  0  0  0  0  0
  -14.8090   13.2060   72.0650 F   0  0  0  0  0  0  0  0  0  0  0  0
   -9.7740   18.0360   67.3820 C   0  0  0  0  0  0  0  0  0  0  0  0
  -10.3740   18.8730   66.4340 C   0  0  0  0  0  0  0  0  0  0  0  0
   -9.6610   19.8520   65.8690 N   0  0  0  0  0  0  0  0  0  0  0  0
  -10.2450   20.6520   64.9510 F   0  0  0  0  0  0  0  0  0  0  0  0
   -8.4040   20.0840   66.2010 N   0  0  0  0  0  0  0  0  0  0  0  0
   -7.7900   19.2660   67.0810 C   0  0  0  0  0  0  0  0  0  0  0  0
   -8.4400   18.1890   67.6670 N   0  0  0  0  0  0  0  0  0  0  0  0
   -6.4520   19.5010   67.4420 C   0  0  0  0  0  0  0  0  0  0  0  0
   -7.7400   17.3310   68.4670 C   0  0  0  0  0  0  0  0  0  0  0  0
   -6.4020   17.5530   68.7790 C   0  0  0  0  0  0  0  0  0  0  0  0
   -5.6920   16.5910   69.6120 C   0  0  0  0  0  0  0  0  0  0  0  0
   -5.7550   18.6720   68.3150 C   0  0  0  0  0  0  0  0  0  0  0  0
   -6.2990   15.6270   70.0430 O   0  0  0  0  0  0  0  0  0  0  0  0
   -4.2290   16.8790   69.8660 C   0  0  0  0  0  0  0  0  0  0  0  0
   -3.4400   15.9680   70.0410 O   0  0  0  0  0  0  0  0  0  0  0  0
   -3.9000   18.3550   69.8200 C   0  0  0  0  0  0  0  0  0  0  0  0
   -4.4760   19.0040   68.6570 O   0  0  0  0  0  0  0  0  0  0  0  0
   -5.8370   20.5760   66.9330 F   0  0  0  0  0  0  0  0  0  0  0  0
   -4.3640   19.0360   71.0680 C   0  0  0  0  0  0  0  0  0  0  0  0
   -5.1810   18.2460   71.9830 O   0  0  0  0  0  0  0  0  0  0  0  0
   -3.4290   19.9060   71.6820 O   0  0  0  0  0  0  0  0  0  0  0  0
   -4.5430   20.4960   71.1830 C   0  0  0  0  0  0  0  0  0  0  0  0
   -5.4520   21.0470   71.7470 O   0  0  0  0  0  0  0  0  0  0  0  0
  -10.7570   15.8450   65.9760 O   0  0  0  0  0  0  0  0  0  0  0  0
  -10.4830   14.5170   65.4380 C   0  0  0  0  0  0  0  0  0  0  0  0
  -10.1430   13.6240   66.4660 O   0  0  0  0  0  0  0  0  0  0  0  0
   -9.8470   12.3660   65.9860 C   0  0  0  0  0  0  0  0  0  0  0  0
   -8.8050   11.6920   66.4800 C   0  0  0  0  0  0  0  0  0  0  0  0
  -10.7050   11.7430   64.9310 C   0  0  0  0  0  0  0  0  0  0  0  0
   -7.9700   12.2290   67.4260 O   0  0  0  0  0  0  0  0  0  0  0  0
  -11.8390   12.5850   64.3850 C   0  0  0  0  0  0  0  0  0  0  0  0
  -10.5160   10.5880   64.5600 O   0  0  0  0  0  0  0  0  0  0  0  0
  -11.6470   14.0770   64.5440 C   0  0  0  0  0  0  0  0  0  0  0  0
  -13.0280   12.2370   64.9660 F   0  0  0  0  0  0  0  0  0  0  0  0
  -12.4170   14.9240   64.0620 O   0  0  0  0  0  0  0  0  0  0  0  0
  -12.2170   15.5680   73.7390 C   0  0  0  0  0  0  0  0  0  0  0  0
  -12.0890   16.9000   74.2490 O   0  0  0  0  0  0  0  0  0  0  0  0
  -13.3470   16.2070   74.3660 O   0  0  0  0  0  0  0  0  0  0  0  0
  1 40  1  0  0  0  0
  1  2  2  0  0  0  0
  1  6  1  0  0  0  0
  2  3  1  0  0  0  0
  2 17  1  0  0  0  0
  3  4  1  0  0  0  0
  4  5  2  0  0  0  0
  4 15  1  0  0  0  0
  5  6  1  0  0  0  0
  5  7  1  0  0  0  0
  7  8  1  0  0  0  0
  7 13  1  0  0  0  0
  8  9  1  0  0  0  0
  9 10  2  0  0  0  0
  9 11  1  0  0  0  0
 11 12  1  0  0  0  0
 12 13  1  0  0  0  0
 12 16  1  0  0  0  0
 13 14  2  0  0  0  0
 14 15  1  0  0  0  0
 14 52  1  0  0  0  0
 17 18  2  0  0  0  0
 17 23  1  0  0  0  0
 18 19  1  0  0  0  0
 19 20  1  0  0  0  0
 19 21  2  0  0  0  0
 21 22  1  0  0  0  0
 22 23  2  0  0  0  0
 22 24  1  0  0  0  0
 23 25  1  0  0  0  0
 24 28  2  0  0  0  0
 24 34  1  0  0  0  0
 25 26  2  0  0  0  0
 26 27  1  0  0  0  0
 26 28  1  0  0  0  0
 27 29  2  0  0  0  0
 27 30  1  0  0  0  0
 28 33  1  0  0  0  0
 30 31  2  0  0  0  0
 30 32  1  0  0  0  0
 32 33  1  0  0  0  0
 32 35  1  0  0  0  0
 35 36  1  0  0  0  0
 35 37  1  0  0  0  0
 35 38  1  0  0  0  0
 37 38  1  0  0  0  0
 38 39  2  0  0  0  0
 40 41  1  0  0  0  0
 41 42  1  0  0  0  0
 41 49  1  0  0  0  0
 42 43  1  0  0  0  0
 43 44  2  0  0  0  0
 43 45  1  0  0  0  0
 44 46  1  0  0  0  0
 45 47  1  0  0  0  0
 45 48  2  0  0  0  0
 47 49  1  0  0  0  0
 47 50  1  0  0  0  0
 49 51  2  0  0  0  0
 52 53  1  0  0  0  0
 52 54  1  0  0  0  0
 53 54  1  0  0  0  0
M  CHG  3  15   1  19   1  23   1
M  END