
 OpenBabel11252023533D

 54 63  0  0  1  0  0  0  0  0999 V2000
  -10.4670   11.8550   68.1330 C   0  0  0  0  0  0  0  0  0  0  0  0
  -10.6530   11.3250   66.8980 C   0  0  0  0  0  0  0  0  0  0  0  0
  -10.4600    9.9490   66.6530 O   0  0  0  0  0  0  0  0  0  0  0  0
  -10.1900    9.0510   67.6930 C   0  0  0  0  0  0  0  0  0  0  0  0
  -10.0120    9.4990   68.9530 C   0  0  0  0  0  0  0  0  0  0  0  0
  -10.0910   10.9670   69.3080 C   0  0  0  0  0  0  0  0  0  0  0  0
   -9.6950    8.5400   70.0890 C   0  0  0  0  0  0  0  0  0  0  0  0
  -10.7350    8.6160   71.0420 O   0  0  0  0  0  0  0  0  0  0  0  0
  -10.7160    7.6850   72.0280 C   0  0  0  0  0  0  0  0  0  0  0  0
  -11.4670    7.8410   73.0470 N   0  0  0  0  0  0  0  0  0  0  0  0
   -9.9100    6.6070   71.9150 O   0  0  0  0  0  0  0  0  0  0  0  0
   -9.4240    6.2210   70.7250 C   0  0  0  0  0  0  0  0  0  0  0  0
   -8.7820    5.2010   70.5320 O   0  0  0  0  0  0  0  0  0  0  0  0
   -9.6590    7.1440   69.6220 C   0  0  0  0  0  0  0  0  0  0  0  0
   -9.8410    6.7490   68.3500 C   0  0  0  0  0  0  0  0  0  0  0  0
  -10.1030    7.7010   67.3790 O   0  0  0  0  0  0  0  0  0  0  0  0
  -10.9660   12.1150   65.6410 C   0  0  0  0  0  0  0  0  0  0  0  0
  -11.9090   11.6390   64.7160 C   0  0  0  0  0  0  0  0  0  0  0  0
  -12.4830   12.4810   63.8530 N   0  0  0  0  0  0  0  0  0  0  0  0
  -13.4110   12.0070   62.9960 F   0  0  0  0  0  0  0  0  0  0  0  0
  -12.2490   13.7840   63.8770 N   0  0  0  0  0  0  0  0  0  0  0  0
  -11.2730   14.2620   64.6800 C   0  0  0  0  0  0  0  0  0  0  0  0
  -10.5350   13.4200   65.5050 N   0  0  0  0  0  0  0  0  0  0  0  0
  -10.9790   15.6490   64.7330 C   0  0  0  0  0  0  0  0  0  0  0  0
   -9.4180   13.9060   66.1190 C   0  0  0  0  0  0  0  0  0  0  0  0
   -9.1180   15.2620   66.1320 C   0  0  0  0  0  0  0  0  0  0  0  0
   -9.9280   16.1670   65.4860 C   0  0  0  0  0  0  0  0  0  0  0  0
   -7.9760   15.7260   66.9130 C   0  0  0  0  0  0  0  0  0  0  0  0
   -9.7280   17.5290   65.5570 O   0  0  0  0  0  0  0  0  0  0  0  0
   -8.7270   17.9700   66.5370 C   0  0  0  0  0  0  0  0  0  0  0  0
   -7.5210   17.1380   66.6060 C   0  0  0  0  0  0  0  0  0  0  0  0
   -8.6530   19.3360   66.8340 O   0  0  0  0  0  0  0  0  0  0  0  0
   -9.1820   18.4750   67.8810 C   0  0  0  0  0  0  0  0  0  0  0  0
   -6.3890   17.4220   66.2830 O   0  0  0  0  0  0  0  0  0  0  0  0
  -10.6120   18.2150   67.9260 O   0  0  0  0  0  0  0  0  0  0  0  0
  -10.1550   19.2330   68.6350 C   0  0  0  0  0  0  0  0  0  0  0  0
  -10.2670   19.4000   69.8410 O   0  0  0  0  0  0  0  0  0  0  0  0
   -7.5730   15.0200   67.8200 O   0  0  0  0  0  0  0  0  0  0  0  0
  -11.7610   16.4900   64.0450 F   0  0  0  0  0  0  0  0  0  0  0  0
  -10.7170   13.2020   68.3660 O   0  0  0  0  0  0  0  0  0  0  0  0
  -11.7770   13.6410   69.2610 C   0  0  0  0  0  0  0  0  0  0  0  0
  -11.9510   12.6760   70.2990 O   0  0  0  0  0  0  0  0  0  0  0  0
  -12.9600   13.0510   71.1840 C   0  0  0  0  0  0  0  0  0  0  0  0
  -13.5290   12.1730   72.0160 C   0  0  0  0  0  0  0  0  0  0  0  0
  -13.4140   14.4790   71.2410 C   0  0  0  0  0  0  0  0  0  0  0  0
  -13.1580   10.8530   72.0710 O   0  0  0  0  0  0  0  0  0  0  0  0
  -12.3300   15.4980   70.9650 C   0  0  0  0  0  0  0  0  0  0  0  0
  -14.5890   14.7660   71.4360 O   0  0  0  0  0  0  0  0  0  0  0  0
  -11.3490   14.9550   69.9360 C   0  0  0  0  0  0  0  0  0  0  0  0
  -11.6830   15.8330   72.1180 F   0  0  0  0  0  0  0  0  0  0  0  0
  -10.2740   15.4920   69.6580 O   0  0  0  0  0  0  0  0  0  0  0  0
   -9.8530    5.3360   67.8810 C   0  0  0  0  0  0  0  0  0  0  0  0
   -9.9570    5.0270   66.4860 O   0  0  0  0  0  0  0  0  0  0  0  0
   -8.7100    4.8130   67.1730 O   0  0  0  0  0  0  0  0  0  0  0  0
  1 40  1  0  0  0  0
  1  2  2  0  0  0  0
  1  6  1  0  0  0  0
  2  3  1  0  0  0  0
  2 17  1  0  0  0  0
  3  4  1  0  0  0  0
  4  5  2  0  0  0  0
  4 16  1  0  0  0  0
  5  6  1  0  0  0  0
  5  7  1  0  0  0  0
  7  8  1  0  0  0  0
  7 14  1  0  0  0  0
  8  9  1  0  0  0  0
  9 10  2  0  0  0  0
  9 11  1  0  0  0  0
 11 12  1  0  0  0  0
 12 13  2  0  0  0  0
 12 14  1  0  0  0  0
 14 15  2  0  0  0  0
 15 16  1  0  0  0  0
 15 52  1  0  0  0  0
 17 18  2  0  0  0  0
 17 23  1  0  0  0  0
 18 19  1  0  0  0  0
 19 20  1  0  0  0  0
 19 21  2  0  0  0  0
 21 22  1  0  0  0  0
 22 23  2  0  0  0  0
 22 24  1  0  0  0  0
 23 25  1  0  0  0  0
 24 27  2  0  0  0  0
 24 39  1  0  0  0  0
 25 26  2  0  0  0  0
 26 27  1  0  0  0  0
 26 28  1  0  0  0  0
 27 29  1  0  0  0  0
 28 31  1  0  0  0  0
 28 38  2  0  0  0  0
 29 30  1  0  0  0  0
 30 31  1  0  0  0  0
 30 32  1  0  0  0  0
 30 33  1  0  0  0  0
 31 34  2  0  0  0  0
 32 33  1  0  0  0  0
 33 35  1  0  0  0  0
 33 36  1  0  0  0  0
 35 36  1  0  0  0  0
 36 37  2  0  0  0  0
 40 41  1  0  0  0  0
 41 42  1  0  0  0  0
 41 49  1  0  0  0  0
 42 43  1  0  0  0  0
 43 44  2  0  0  0  0
 43 45  1  0  0  0  0
 44 46  1  0  0  0  0
 45 47  1  0  0  0  0
 45 48  2  0  0  0  0
 47 49  1  0  0  0  0
 47 50  1  0  0  0  0
 49 51  2  0  0  0  0
 52 53  1  0  0  0  0
 52 54  1  0  0  0  0
 53 54  1  0  0  0  0
M  CHG  3  16   1  19   1  23   1
M  END