
 OpenBabel10242013383D

 51 58  0  0  1  0  0  0  0  0999 V2000
  -10.1470   15.1840   67.3470 C   0  0  0  0  0  0  0  0  0  0  0  0
  -10.3290   16.3760   67.9560 C   0  0  0  0  0  0  0  0  0  0  0  0
  -11.0190   16.5240   69.1590 O   0  0  0  0  0  0  0  0  0  0  0  0
  -11.5170   15.4000   69.8010 C   0  0  0  0  0  0  0  0  0  0  0  0
  -11.3470   14.1720   69.2910 C   0  0  0  0  0  0  0  0  0  0  0  0
  -10.6570   13.9190   67.9940 C   0  0  0  0  0  0  0  0  0  0  0  0
  -11.9030   13.0160   70.0460 C   0  0  0  0  0  0  0  0  0  0  0  0
  -11.7250   11.8120   69.6090 N   0  0  0  0  0  0  0  0  0  0  0  0
  -12.2480   10.7520   70.3190 C   0  0  0  0  0  0  0  0  0  0  0  0
  -12.0670    9.6220   69.8840 O   0  0  0  0  0  0  0  0  0  0  0  0
  -12.9740   10.9020   71.4840 N   0  0  0  0  0  0  0  0  0  0  0  0
  -13.1650   12.0880   71.9430 C   0  0  0  0  0  0  0  0  0  0  0  0
  -12.6600   13.3010   71.2910 C   0  0  0  0  0  0  0  0  0  0  0  0
  -12.7970   14.5780   71.7140 C   0  0  0  0  0  0  0  0  0  0  0  0
  -12.1940   15.6000   70.9780 N   0  0  0  0  0  0  0  0  0  0  0  0
   -9.8270   17.6510   67.4140 C   0  0  0  0  0  0  0  0  0  0  0  0
  -10.6510   18.2320   66.5150 N   0  0  0  0  0  0  0  0  0  0  0  0
  -10.2680   19.4270   66.0590 C   0  0  0  0  0  0  0  0  0  0  0  0
   -9.1830   20.1090   66.4480 N   0  0  0  0  0  0  0  0  0  0  0  0
   -8.3720   19.5160   67.3290 C   0  0  0  0  0  0  0  0  0  0  0  0
   -8.6220   18.2360   67.8460 C   0  0  0  0  0  0  0  0  0  0  0  0
   -7.2300   20.1990   67.7370 C   0  0  0  0  0  0  0  0  0  0  0  0
   -7.6710   17.6440   68.7170 C   0  0  0  0  0  0  0  0  0  0  0  0
   -6.4940   18.3270   69.0410 C   0  0  0  0  0  0  0  0  0  0  0  0
   -6.2890   19.6240   68.5940 C   0  0  0  0  0  0  0  0  0  0  0  0
   -5.4350   17.6600   69.8050 C   0  0  0  0  0  0  0  0  0  0  0  0
   -5.2080   20.4000   68.9060 O   0  0  0  0  0  0  0  0  0  0  0  0
   -4.3150   19.9150   69.9200 C   0  0  0  0  0  0  0  0  0  0  0  0
   -4.1360   18.4200   69.9220 C   0  0  0  0  0  0  0  0  0  0  0  0
   -3.0690   17.8370   70.0420 O   0  0  0  0  0  0  0  0  0  0  0  0
   -5.5760   16.5580   70.3060 O   0  0  0  0  0  0  0  0  0  0  0  0
   -4.7290   20.4120   71.2770 C   0  0  0  0  0  0  0  0  0  0  0  0
   -6.1420   20.6110   71.5020 O   0  0  0  0  0  0  0  0  0  0  0  0
   -4.0530   19.8220   72.3920 O   0  0  0  0  0  0  0  0  0  0  0  0
   -3.7930   21.1120   72.1380 C   0  0  0  0  0  0  0  0  0  0  0  0
   -2.7320   21.6730   71.9270 O   0  0  0  0  0  0  0  0  0  0  0  0
   -9.4320   15.0920   66.1590 O   0  0  0  0  0  0  0  0  0  0  0  0
   -9.8530   14.0960   65.2130 C   0  0  0  0  0  0  0  0  0  0  0  0
  -10.1080   12.8440   65.8440 O   0  0  0  0  0  0  0  0  0  0  0  0
  -10.4230   11.8470   64.9420 C   0  0  0  0  0  0  0  0  0  0  0  0
   -9.8380   10.6450   64.9910 C   0  0  0  0  0  0  0  0  0  0  0  0
  -11.4330   12.0970   63.8800 C   0  0  0  0  0  0  0  0  0  0  0  0
   -8.8540   10.3320   65.8930 O   0  0  0  0  0  0  0  0  0  0  0  0
  -11.8830   13.5390   63.7940 C   0  0  0  0  0  0  0  0  0  0  0  0
  -11.8390   11.2440   63.1070 O   0  0  0  0  0  0  0  0  0  0  0  0
  -11.0990   14.6170   64.5070 C   0  0  0  0  0  0  0  0  0  0  0  0
  -12.8630   13.8320   63.1230 O   0  0  0  0  0  0  0  0  0  0  0  0
  -11.4370   15.7910   64.4270 O   0  0  0  0  0  0  0  0  0  0  0  0
  -13.5790   14.9510   72.9680 C   0  0  0  0  0  0  0  0  0  0  0  0
  -12.4470   15.4730   74.2370 Cl  0  0  0  0  0  0  0  0  0  0  0  0
  -14.7620   16.2470   72.6450 Cl  0  0  0  0  0  0  0  0  0  0  0  0
  1 37  1  0  0  0  0
  1  2  2  0  0  0  0
  1  6  1  0  0  0  0
  2  3  1  0  0  0  0
  2 16  1  0  0  0  0
  3  4  1  0  0  0  0
  4  5  2  0  0  0  0
  4 15  1  0  0  0  0
  5  6  1  0  0  0  0
  5  7  1  0  0  0  0
  7  8  2  0  0  0  0
  7 13  1  0  0  0  0
  8  9  1  0  0  0  0
  9 10  2  0  0  0  0
  9 11  1  0  0  0  0
 11 12  2  0  0  0  0
 12 13  1  0  0  0  0
 13 14  2  0  0  0  0
 14 15  1  0  0  0  0
 14 49  1  0  0  0  0
 16 17  2  0  0  0  0
 16 21  1  0  0  0  0
 17 18  1  0  0  0  0
 18 19  2  0  0  0  0
 19 20  1  0  0  0  0
 20 21  2  0  0  0  0
 20 22  1  0  0  0  0
 21 23  1  0  0  0  0
 22 25  2  0  0  0  0
 23 24  2  0  0  0  0
 24 25  1  0  0  0  0
 24 26  1  0  0  0  0
 25 27  1  0  0  0  0
 26 29  1  0  0  0  0
 26 31  2  0  0  0  0
 27 28  1  0  0  0  0
 28 29  1  0  0  0  0
 28 32  1  0  0  0  0
 29 30  2  0  0  0  0
 32 33  1  0  0  0  0
 32 34  1  0  0  0  0
 32 35  1  0  0  0  0
 34 35  1  0  0  0  0
 35 36  2  0  0  0  0
 37 38  1  0  0  0  0
 38 39  1  0  0  0  0
 38 46  1  0  0  0  0
 39 40  1  0  0  0  0
 40 41  2  0  0  0  0
 40 42  1  0  0  0  0
 41 43  1  0  0  0  0
 42 44  1  0  0  0  0
 42 45  2  0  0  0  0
 44 46  1  0  0  0  0
 44 47  2  0  0  0  0
 46 48  2  0  0  0  0
 49 50  1  0  0  0  0
 49 51  1  0  0  0  0
M  END
