
 OpenBabel09212011573D

 49 56  0  0  1  0  0  0  0  0999 V2000
  -10.2370   15.4010   67.7770 C   0  0  0  0  0  0  0  0  0  0  0  0
  -10.4370   16.6270   68.3030 C   0  0  0  0  0  0  0  0  0  0  0  0
  -11.2060   16.8720   69.4350 O   0  0  0  0  0  0  0  0  0  0  0  0
  -11.7630   15.8120   70.1150 C   0  0  0  0  0  0  0  0  0  0  0  0
  -11.6490   14.5030   69.6610 C   0  0  0  0  0  0  0  0  0  0  0  0
  -10.9050   14.2050   68.3990 C   0  0  0  0  0  0  0  0  0  0  0  0
  -12.2230   13.4920   70.4430 C   0  0  0  0  0  0  0  0  0  0  0  0
  -12.1400   12.1440   70.0680 N   0  0  0  0  0  0  0  0  0  0  0  0
  -12.7180   11.1170   70.7480 C   0  0  0  0  0  0  0  0  0  0  0  0
  -12.6280    9.9600   70.3510 O   0  0  0  0  0  0  0  0  0  0  0  0
  -13.4090   11.4270   71.8690 N   0  0  0  0  0  0  0  0  0  0  0  0
  -13.4270   12.7300   72.4940 C   0  0  0  0  0  0  0  0  0  0  0  0
  -12.8730   13.8060   71.6280 C   0  0  0  0  0  0  0  0  0  0  0  0
  -12.9120   15.1390   71.9760 C   0  0  0  0  0  0  0  0  0  0  0  0
  -12.3870   16.1500   71.2650 N   0  0  0  0  0  0  0  0  0  0  0  0
  -13.4910   15.5410   73.1350 O   0  0  0  0  0  0  0  0  0  0  0  0
   -9.8510   17.8550   67.7290 C   0  0  0  0  0  0  0  0  0  0  0  0
  -10.7260   18.6010   67.0040 N   0  0  0  0  0  0  0  0  0  0  0  0
  -10.2730   19.7570   66.4800 C   0  0  0  0  0  0  0  0  0  0  0  0
   -8.9860   20.2290   66.6560 C   0  0  0  0  0  0  0  0  0  0  0  0
   -8.0910   19.4750   67.4190 C   0  0  0  0  0  0  0  0  0  0  0  0
   -8.5090   18.2430   67.9720 C   0  0  0  0  0  0  0  0  0  0  0  0
   -6.7860   19.9450   67.6450 C   0  0  0  0  0  0  0  0  0  0  0  0
   -7.5650   17.5040   68.7280 C   0  0  0  0  0  0  0  0  0  0  0  0
   -6.2690   17.9940   68.9460 C   0  0  0  0  0  0  0  0  0  0  0  0
   -5.8870   19.2220   68.4270 C   0  0  0  0  0  0  0  0  0  0  0  0
   -5.2970   17.1990   69.7060 C   0  0  0  0  0  0  0  0  0  0  0  0
   -4.6640   19.7970   68.5990 O   0  0  0  0  0  0  0  0  0  0  0  0
   -3.8690   19.3100   69.6800 C   0  0  0  0  0  0  0  0  0  0  0  0
   -3.9470   17.8280   69.9700 C   0  0  0  0  0  0  0  0  0  0  0  0
   -3.0360   17.1760   70.4640 O   0  0  0  0  0  0  0  0  0  0  0  0
   -5.5610   16.0760   70.1060 O   0  0  0  0  0  0  0  0  0  0  0  0
   -4.1400   20.0990   70.9280 C   0  0  0  0  0  0  0  0  0  0  0  0
   -4.5980   21.4400   70.7450 O   0  0  0  0  0  0  0  0  0  0  0  0
   -3.3560   21.2860   71.2370 C   0  0  0  0  0  0  0  0  0  0  0  0
   -2.3010   21.7130   70.8080 O   0  0  0  0  0  0  0  0  0  0  0  0
   -4.8010   19.4080   72.0080 O   0  0  0  0  0  0  0  0  0  0  0  0
   -9.4390   15.2280   66.6480 O   0  0  0  0  0  0  0  0  0  0  0  0
   -9.9160   14.3320   65.6450 C   0  0  0  0  0  0  0  0  0  0  0  0
  -10.2580   13.0700   66.2120 O   0  0  0  0  0  0  0  0  0  0  0  0
  -10.4580   12.0600   65.2180 C   0  0  0  0  0  0  0  0  0  0  0  0
  -11.6760   12.3810   64.3820 C   0  0  0  0  0  0  0  0  0  0  0  0
  -11.8260   13.8560   64.0670 C   0  0  0  0  0  0  0  0  0  0  0  0
  -12.4550   11.5550   63.9320 O   0  0  0  0  0  0  0  0  0  0  0  0
  -11.1370   14.8920   64.9280 C   0  0  0  0  0  0  0  0  0  0  0  0
  -12.4580   14.2020   63.0810 O   0  0  0  0  0  0  0  0  0  0  0  0
  -11.5210   16.0500   64.9430 O   0  0  0  0  0  0  0  0  0  0  0  0
  -10.6200   10.6990   65.8950 C   0  0  0  0  0  0  0  0  0  0  0  0
  -11.4280   10.8550   67.0630 O   0  0  0  0  0  0  0  0  0  0  0  0
  1 38  1  0  0  0  0
  1  2  2  0  0  0  0
  1  6  1  0  0  0  0
  2  3  1  0  0  0  0
  2 17  1  0  0  0  0
  3  4  1  0  0  0  0
  4  5  2  0  0  0  0
  4 15  1  0  0  0  0
  5  6  1  0  0  0  0
  5  7  1  0  0  0  0
  7  8  1  0  0  0  0
  7 13  2  0  0  0  0
  8  9  1  0  0  0  0
  9 10  2  0  0  0  0
  9 11  1  0  0  0  0
 11 12  1  0  0  0  0
 12 13  1  0  0  0  0
 13 14  1  0  0  0  0
 14 15  2  0  0  0  0
 14 16  1  0  0  0  0
 17 18  2  0  0  0  0
 17 22  1  0  0  0  0
 18 19  1  0  0  0  0
 19 20  2  0  0  0  0
 20 21  1  0  0  0  0
 21 22  2  0  0  0  0
 21 23  1  0  0  0  0
 22 24  1  0  0  0  0
 23 26  2  0  0  0  0
 24 25  2  0  0  0  0
 25 26  1  0  0  0  0
 25 27  1  0  0  0  0
 26 28  1  0  0  0  0
 27 30  1  0  0  0  0
 27 32  2  0  0  0  0
 28 29  1  0  0  0  0
 29 30  1  0  0  0  0
 29 33  1  0  0  0  0
 30 31  2  0  0  0  0
 33 34  1  0  0  0  0
 33 35  1  0  0  0  0
 33 37  1  0  0  0  0
 34 35  1  0  0  0  0
 35 36  2  0  0  0  0
 38 39  1  0  0  0  0
 39 40  1  0  0  0  0
 39 45  1  0  0  0  0
 40 41  1  0  0  0  0
 41 42  1  0  0  0  0
 41 48  1  0  0  0  0
 42 43  1  0  0  0  0
 42 44  2  0  0  0  0
 43 45  1  0  0  0  0
 43 46  2  0  0  0  0
 45 47  2  0  0  0  0
 48 49  1  0  0  0  0
M  END
