
 OpenBabel09222003583D

 52 60  0  0  1  0  0  0  0  0999 V2000
  -12.7860   15.2330   72.0560 C   0  0  0  0  0  0  0  0  0  0  0  0
  -12.3170   16.1750   71.2080 N   0  0  0  0  0  0  0  0  0  0  0  0
  -11.7720   15.7590   70.0480 C   0  0  0  0  0  0  0  0  0  0  0  0
  -11.3210   16.7740   69.2410 O   0  0  0  0  0  0  0  0  0  0  0  0
  -10.5730   16.4900   68.1020 C   0  0  0  0  0  0  0  0  0  0  0  0
  -10.4190   15.2190   67.6360 C   0  0  0  0  0  0  0  0  0  0  0  0
  -11.0570   14.0710   68.3770 C   0  0  0  0  0  0  0  0  0  0  0  0
  -11.6770   14.4320   69.6820 C   0  0  0  0  0  0  0  0  0  0  0  0
  -12.2150   13.4850   70.5590 C   0  0  0  0  0  0  0  0  0  0  0  0
  -12.8040   13.8770   71.7630 C   0  0  0  0  0  0  0  0  0  0  0  0
  -13.3190   12.8150   72.6770 C   0  0  0  0  0  0  0  0  0  0  0  0
  -13.6440   11.5970   71.9750 N   0  0  0  0  0  0  0  0  0  0  0  0
  -12.9130   11.1690   70.9140 C   0  0  0  0  0  0  0  0  0  0  0  0
  -12.9370   10.0010   70.5430 O   0  0  0  0  0  0  0  0  0  0  0  0
  -12.2010   12.1160   70.2430 N   0  0  0  0  0  0  0  0  0  0  0  0
   -9.8840   17.7150   67.5640 C   0  0  0  0  0  0  0  0  0  0  0  0
  -10.6750   18.4440   66.7320 N   0  0  0  0  0  0  0  0  0  0  0  0
  -10.1540   19.5170   66.1150 C   0  0  0  0  0  0  0  0  0  0  0  0
   -8.8540   19.9410   66.2780 C   0  0  0  0  0  0  0  0  0  0  0  0
   -8.0220   19.2340   67.1390 C   0  0  0  0  0  0  0  0  0  0  0  0
   -8.5080   18.0740   67.8060 C   0  0  0  0  0  0  0  0  0  0  0  0
   -6.7160   19.7170   67.3530 C   0  0  0  0  0  0  0  0  0  0  0  0
   -7.5710   17.4210   68.6600 C   0  0  0  0  0  0  0  0  0  0  0  0
   -6.2890   17.9530   68.9040 C   0  0  0  0  0  0  0  0  0  0  0  0
   -5.8690   19.1150   68.2740 C   0  0  0  0  0  0  0  0  0  0  0  0
   -5.3970   17.3260   69.8900 C   0  0  0  0  0  0  0  0  0  0  0  0
   -4.6800   19.7510   68.5030 O   0  0  0  0  0  0  0  0  0  0  0  0
   -4.0140   19.4330   69.7380 C   0  0  0  0  0  0  0  0  0  0  0  0
   -4.0300   17.9540   70.0390 C   0  0  0  0  0  0  0  0  0  0  0  0
   -3.0550   17.3080   70.3900 O   0  0  0  0  0  0  0  0  0  0  0  0
   -5.7460   16.3970   70.5980 O   0  0  0  0  0  0  0  0  0  0  0  0
   -4.5140   20.3010   70.8700 C   0  0  0  0  0  0  0  0  0  0  0  0
   -5.8860   20.7490   70.7690 O   0  0  0  0  0  0  0  0  0  0  0  0
   -4.1100   19.8930   72.1890 O   0  0  0  0  0  0  0  0  0  0  0  0
   -3.6510   21.0620   71.7460 C   0  0  0  0  0  0  0  0  0  0  0  0
   -2.5190   21.5060   71.6160 O   0  0  0  0  0  0  0  0  0  0  0  0
   -9.6220   14.9210   66.5310 O   0  0  0  0  0  0  0  0  0  0  0  0
   -9.6680   13.6400   65.8900 C   0  0  0  0  0  0  0  0  0  0  0  0
  -11.0150   13.1850   65.7320 O   0  0  0  0  0  0  0  0  0  0  0  0
  -11.2170   12.0280   64.9090 C   0  0  0  0  0  0  0  0  0  0  0  0
  -10.0840   11.0220   64.9460 C   0  0  0  0  0  0  0  0  0  0  0  0
   -9.8000   10.2050   64.0870 O   0  0  0  0  0  0  0  0  0  0  0  0
   -9.2430   11.1720   66.1820 C   0  0  0  0  0  0  0  0  0  0  0  0
   -9.0290   10.2220   66.9140 O   0  0  0  0  0  0  0  0  0  0  0  0
   -8.7720   12.5620   66.5230 C   0  0  0  0  0  0  0  0  0  0  0  0
   -7.7840   12.7370   67.2170 O   0  0  0  0  0  0  0  0  0  0  0  0
  -11.6070   12.4460   63.5250 C   0  0  0  0  0  0  0  0  0  0  0  0
  -12.5500   13.5220   63.4790 O   0  0  0  0  0  0  0  0  0  0  0  0
  -12.9600   12.1740   63.1570 O   0  0  0  0  0  0  0  0  0  0  0  0
  -13.4020   15.7810   73.1820 O   0  0  0  0  0  0  0  0  0  0  0  0
  -12.5750   15.9300   74.2730 C   0  0  0  0  0  0  0  0  0  0  0  0
  -12.2710   16.9610   74.8520 O   0  0  0  0  0  0  0  0  0  0  0  0
  1 50  1  0  0  0  0
  1  2  2  0  0  0  0
  1 10  1  0  0  0  0
  2  3  1  0  0  0  0
  3  4  1  0  0  0  0
  3  8  2  0  0  0  0
  4  5  1  0  0  0  0
  5  6  2  0  0  0  0
  5 16  1  0  0  0  0
  6  7  1  0  0  0  0
  6 37  1  0  0  0  0
  7  8  1  0  0  0  0
  8  9  1  0  0  0  0
  9 10  2  0  0  0  0
  9 15  1  0  0  0  0
 10 11  1  0  0  0  0
 11 12  1  0  0  0  0
 12 13  1  0  0  0  0
 13 14  2  0  0  0  0
 13 15  1  0  0  0  0
 16 17  2  0  0  0  0
 16 21  1  0  0  0  0
 17 18  1  0  0  0  0
 18 19  2  0  0  0  0
 19 20  1  0  0  0  0
 20 21  2  0  0  0  0
 20 22  1  0  0  0  0
 21 23  1  0  0  0  0
 22 25  2  0  0  0  0
 23 24  2  0  0  0  0
 24 25  1  0  0  0  0
 24 26  1  0  0  0  0
 25 27  1  0  0  0  0
 26 29  1  0  0  0  0
 26 31  2  0  0  0  0
 27 28  1  0  0  0  0
 28 29  1  0  0  0  0
 28 32  1  0  0  0  0
 29 30  2  0  0  0  0
 32 33  1  0  0  0  0
 32 34  1  0  0  0  0
 32 35  1  0  0  0  0
 34 35  1  0  0  0  0
 35 36  2  0  0  0  0
 37 38  1  0  0  0  0
 38 39  1  0  0  0  0
 38 45  1  0  0  0  0
 39 40  1  0  0  0  0
 40 41  1  0  0  0  0
 40 47  1  0  0  0  0
 41 42  2  0  0  0  0
 41 43  1  0  0  0  0
 43 44  2  0  0  0  0
 43 45  1  0  0  0  0
 45 46  2  0  0  0  0
 47 48  1  0  0  0  0
 47 49  1  0  0  0  0
 48 49  1  0  0  0  0
 50 51  1  0  0  0  0
 51 52  2  0  0  0  0
M  END
