
 OpenBabel11222003353D

 52 60  0  0  1  0  0  0  0  0999 V2000
  -11.0000   15.8380   67.4020 C   0  0  0  0  0  0  0  0  0  0  0  0
  -10.6560   16.9600   68.0820 C   0  0  0  0  0  0  0  0  0  0  0  0
  -10.8730   17.0760   69.4640 O   0  0  0  0  0  0  0  0  0  0  0  0
  -11.5280   16.0650   70.1700 C   0  0  0  0  0  0  0  0  0  0  0  0
  -11.8310   14.8990   69.5780 C   0  0  0  0  0  0  0  0  0  0  0  0
  -11.5190   14.6280   68.1400 C   0  0  0  0  0  0  0  0  0  0  0  0
  -12.5770   13.8100   70.2890 C   0  0  0  0  0  0  0  0  0  0  0  0
  -11.7290   12.6870   70.4120 O   0  0  0  0  0  0  0  0  0  0  0  0
  -12.3070   11.5900   70.9790 C   0  0  0  0  0  0  0  0  0  0  0  0
  -11.8240   10.4770   70.8650 O   0  0  0  0  0  0  0  0  0  0  0  0
  -13.4710   11.8320   71.6370 O   0  0  0  0  0  0  0  0  0  0  0  0
  -13.6580   13.0650   72.3240 C   0  0  0  0  0  0  0  0  0  0  0  0
  -12.9350   14.1920   71.6730 C   0  0  0  0  0  0  0  0  0  0  0  0
  -12.6170   15.3900   72.2140 C   0  0  0  0  0  0  0  0  0  0  0  0
  -11.8670   16.3050   71.4850 O   0  0  0  0  0  0  0  0  0  0  0  0
  -15.0210   13.4320   72.2550 O   0  0  0  0  0  0  0  0  0  0  0  0
   -9.9890   18.1530   67.4470 C   0  0  0  0  0  0  0  0  0  0  0  0
  -10.6510   18.8530   66.4320 C   0  0  0  0  0  0  0  0  0  0  0  0
  -10.0680   19.8660   65.7870 N   0  0  0  0  0  0  0  0  0  0  0  0
  -10.7410   20.4880   64.8000 F   0  0  0  0  0  0  0  0  0  0  0  0
   -8.8570   20.2830   66.0760 N   0  0  0  0  0  0  0  0  0  0  0  0
   -8.1600   19.6850   67.0420 C   0  0  0  0  0  0  0  0  0  0  0  0
   -8.6760   18.6010   67.7850 C   0  0  0  0  0  0  0  0  0  0  0  0
   -6.8740   20.1550   67.3020 C   0  0  0  0  0  0  0  0  0  0  0  0
   -7.8270   18.0390   68.7820 C   0  0  0  0  0  0  0  0  0  0  0  0
   -6.5290   18.5170   69.0150 C   0  0  0  0  0  0  0  0  0  0  0  0
   -5.6450   17.9170   70.0780 C   0  0  0  0  0  0  0  0  0  0  0  0
   -6.0450   19.5950   68.2750 C   0  0  0  0  0  0  0  0  0  0  0  0
   -4.1870   18.0250   69.6620 C   0  0  0  0  0  0  0  0  0  0  0  0
   -3.9130   19.4280   69.1840 C   0  0  0  0  0  0  0  0  0  0  0  0
   -4.7690   20.1340   68.5120 N   0  0  0  0  0  0  0  0  0  0  0  0
   -6.4140   21.1850   66.5710 F   0  0  0  0  0  0  0  0  0  0  0  0
   -2.5970   20.0060   69.4810 C   0  0  0  0  0  0  0  0  0  0  0  0
   -1.4950   19.0700   69.4890 O   0  0  0  0  0  0  0  0  0  0  0  0
   -2.3510   21.2470   68.8110 O   0  0  0  0  0  0  0  0  0  0  0  0
   -2.3620   21.2790   70.1610 C   0  0  0  0  0  0  0  0  0  0  0  0
   -1.4930   21.6160   70.9240 O   0  0  0  0  0  0  0  0  0  0  0  0
  -10.9310   15.7840   66.0190 O   0  0  0  0  0  0  0  0  0  0  0  0
  -10.6200   14.5400   65.3490 C   0  0  0  0  0  0  0  0  0  0  0  0
  -10.3830   13.4830   66.2680 O   0  0  0  0  0  0  0  0  0  0  0  0
  -10.0230   12.2850   65.6760 C   0  0  0  0  0  0  0  0  0  0  0  0
   -9.2100   11.4240   66.2980 C   0  0  0  0  0  0  0  0  0  0  0  0
  -10.5910   11.9000   64.3550 C   0  0  0  0  0  0  0  0  0  0  0  0
   -8.6540   11.6790   67.5270 O   0  0  0  0  0  0  0  0  0  0  0  0
  -11.7680   12.7690   63.9520 C   0  0  0  0  0  0  0  0  0  0  0  0
  -10.1350   11.0350   63.6320 O   0  0  0  0  0  0  0  0  0  0  0  0
  -11.8190   14.1920   64.4760 C   0  0  0  0  0  0  0  0  0  0  0  0
  -12.6620   12.3310   63.2530 O   0  0  0  0  0  0  0  0  0  0  0  0
  -12.7220   14.9730   64.1970 O   0  0  0  0  0  0  0  0  0  0  0  0
  -13.0280   15.8260   73.5720 C   0  0  0  0  0  0  0  0  0  0  0  0
  -12.2830   15.4290   74.7320 O   0  0  0  0  0  0  0  0  0  0  0  0
  -12.2370   16.7970   74.2860 O   0  0  0  0  0  0  0  0  0  0  0  0
  1 38  1  0  0  0  0
  1  2  2  0  0  0  0
  1  6  1  0  0  0  0
  2  3  1  0  0  0  0
  2 17  1  0  0  0  0
  3  4  1  0  0  0  0
  4  5  2  0  0  0  0
  4 15  1  0  0  0  0
  5  6  1  0  0  0  0
  5  7  1  0  0  0  0
  7  8  1  0  0  0  0
  7 13  1  0  0  0  0
  8  9  1  0  0  0  0
  9 10  2  0  0  0  0
  9 11  1  0  0  0  0
 11 12  1  0  0  0  0
 12 13  1  0  0  0  0
 12 16  1  0  0  0  0
 13 14  2  0  0  0  0
 14 15  1  0  0  0  0
 14 50  1  0  0  0  0
 17 18  2  0  0  0  0
 17 23  1  0  0  0  0
 18 19  1  0  0  0  0
 19 20  1  0  0  0  0
 19 21  2  0  0  0  0
 21 22  1  0  0  0  0
 22 23  2  0  0  0  0
 22 24  1  0  0  0  0
 23 25  1  0  0  0  0
 24 28  2  0  0  0  0
 24 32  1  0  0  0  0
 25 26  2  0  0  0  0
 26 27  1  0  0  0  0
 26 28  1  0  0  0  0
 27 29  1  0  0  0  0
 28 31  1  0  0  0  0
 29 30  1  0  0  0  0
 30 31  2  0  0  0  0
 30 33  1  0  0  0  0
 33 34  1  0  0  0  0
 33 35  1  0  0  0  0
 33 36  1  0  0  0  0
 35 36  1  0  0  0  0
 36 37  2  0  0  0  0
 38 39  1  0  0  0  0
 39 40  1  0  0  0  0
 39 47  1  0  0  0  0
 40 41  1  0  0  0  0
 41 42  2  0  0  0  0
 41 43  1  0  0  0  0
 42 44  1  0  0  0  0
 43 45  1  0  0  0  0
 43 46  2  0  0  0  0
 45 47  1  0  0  0  0
 45 48  2  0  0  0  0
 47 49  2  0  0  0  0
 50 51  1  0  0  0  0
 50 52  1  0  0  0  0
 51 52  1  0  0  0  0
M  CHG  2  15   1  19   1
M  END