
 OpenBabel09262021573D

 53 61  0  0  1  0  0  0  0  0999 V2000
  -10.7140   15.6380   67.2670 C   0  0  0  0  0  0  0  0  0  0  0  0
  -10.7040   16.8100   67.9380 C   0  0  0  0  0  0  0  0  0  0  0  0
  -11.3110   16.9860   69.1770 O   0  0  0  0  0  0  0  0  0  0  0  0
  -11.8250   15.8840   69.8410 C   0  0  0  0  0  0  0  0  0  0  0  0
  -11.8190   14.6620   69.2850 C   0  0  0  0  0  0  0  0  0  0  0  0
  -11.3370   14.4100   67.8960 C   0  0  0  0  0  0  0  0  0  0  0  0
  -12.2790   13.5170   70.1200 C   0  0  0  0  0  0  0  0  0  0  0  0
  -12.2710   12.3110   69.6550 N   0  0  0  0  0  0  0  0  0  0  0  0
  -12.6730   11.2710   70.4720 C   0  0  0  0  0  0  0  0  0  0  0  0
  -12.6840   10.1410   70.0010 O   0  0  0  0  0  0  0  0  0  0  0  0
  -13.0580   11.4380   71.7880 N   0  0  0  0  0  0  0  0  0  0  0  0
  -13.0790   12.6300   72.2770 C   0  0  0  0  0  0  0  0  0  0  0  0
  -12.7150   13.8140   71.5040 C   0  0  0  0  0  0  0  0  0  0  0  0
  -12.7370   15.0860   71.9480 C   0  0  0  0  0  0  0  0  0  0  0  0
  -12.3150   16.1000   71.1030 N   0  0  0  0  0  0  0  0  0  0  0  0
  -10.0390   18.0280   67.4410 C   0  0  0  0  0  0  0  0  0  0  0  0
  -10.8180   18.7990   66.6580 N   0  0  0  0  0  0  0  0  0  0  0  0
  -10.2540   19.9170   66.2080 C   0  0  0  0  0  0  0  0  0  0  0  0
   -9.0060   20.3300   66.4680 N   0  0  0  0  0  0  0  0  0  0  0  0
   -8.2370   19.5710   67.2590 C   0  0  0  0  0  0  0  0  0  0  0  0
   -8.7170   18.3650   67.7990 C   0  0  0  0  0  0  0  0  0  0  0  0
   -6.9250   19.9870   67.5630 C   0  0  0  0  0  0  0  0  0  0  0  0
   -7.8750   17.5920   68.6360 C   0  0  0  0  0  0  0  0  0  0  0  0
   -6.5780   18.0160   68.9250 C   0  0  0  0  0  0  0  0  0  0  0  0
   -5.6970   17.1810   69.7520 C   0  0  0  0  0  0  0  0  0  0  0  0
   -6.1060   19.2190   68.4170 C   0  0  0  0  0  0  0  0  0  0  0  0
   -6.0350   16.0760   70.1470 O   0  0  0  0  0  0  0  0  0  0  0  0
   -4.3600   17.7690   70.1440 C   0  0  0  0  0  0  0  0  0  0  0  0
   -3.5280   17.1100   70.7520 O   0  0  0  0  0  0  0  0  0  0  0  0
   -4.2370   19.2490   69.8990 C   0  0  0  0  0  0  0  0  0  0  0  0
   -4.8460   19.6870   68.6750 O   0  0  0  0  0  0  0  0  0  0  0  0
   -4.7070   20.0710   71.0640 C   0  0  0  0  0  0  0  0  0  0  0  0
   -6.1400   20.1690   71.2270 O   0  0  0  0  0  0  0  0  0  0  0  0
   -3.9520   19.9150   72.2640 O   0  0  0  0  0  0  0  0  0  0  0  0
   -3.9340   21.1440   71.6970 C   0  0  0  0  0  0  0  0  0  0  0  0
   -4.2960   22.1980   72.1690 O   0  0  0  0  0  0  0  0  0  0  0  0
   -6.4060   21.2900   66.9790 C   0  0  0  0  0  0  0  0  0  0  0  0
   -5.3800   20.9390   65.1410 I   0  0  0  0  0  0  0  0  0  0  0  0
  -10.0810   15.5150   66.0370 O   0  0  0  0  0  0  0  0  0  0  0  0
   -9.9760   14.1930   65.4870 C   0  0  0  0  0  0  0  0  0  0  0  0
   -9.7360   13.2100   66.4920 O   0  0  0  0  0  0  0  0  0  0  0  0
   -9.5720   11.9230   66.0120 C   0  0  0  0  0  0  0  0  0  0  0  0
   -8.7300   11.0700   66.6090 C   0  0  0  0  0  0  0  0  0  0  0  0
  -10.3560   11.4230   64.8460 C   0  0  0  0  0  0  0  0  0  0  0  0
   -7.9600   11.4200   67.6890 O   0  0  0  0  0  0  0  0  0  0  0  0
  -11.2680   12.4570   64.2200 C   0  0  0  0  0  0  0  0  0  0  0  0
  -10.2680   10.2910   64.3980 O   0  0  0  0  0  0  0  0  0  0  0  0
  -11.2720   13.8610   64.7670 C   0  0  0  0  0  0  0  0  0  0  0  0
  -11.9540   12.1750   63.2510 O   0  0  0  0  0  0  0  0  0  0  0  0
  -12.2260   14.6030   64.5900 O   0  0  0  0  0  0  0  0  0  0  0  0
  -13.1650   15.5050   73.3030 C   0  0  0  0  0  0  0  0  0  0  0  0
  -12.3410   15.2740   74.4560 O   0  0  0  0  0  0  0  0  0  0  0  0
  -12.5580   16.6190   73.9830 O   0  0  0  0  0  0  0  0  0  0  0  0
  1 39  1  0  0  0  0
  1  2  2  0  0  0  0
  1  6  1  0  0  0  0
  2  3  1  0  0  0  0
  2 16  1  0  0  0  0
  3  4  1  0  0  0  0
  4  5  2  0  0  0  0
  4 15  1  0  0  0  0
  5  6  1  0  0  0  0
  5  7  1  0  0  0  0
  7  8  2  0  0  0  0
  7 13  1  0  0  0  0
  8  9  1  0  0  0  0
  9 10  2  0  0  0  0
  9 11  1  0  0  0  0
 11 12  2  0  0  0  0
 12 13  1  0  0  0  0
 13 14  2  0  0  0  0
 14 15  1  0  0  0  0
 14 51  1  0  0  0  0
 16 17  2  0  0  0  0
 16 21  1  0  0  0  0
 17 18  1  0  0  0  0
 18 19  2  0  0  0  0
 19 20  1  0  0  0  0
 20 21  2  0  0  0  0
 20 22  1  0  0  0  0
 21 23  1  0  0  0  0
 22 26  2  0  0  0  0
 22 37  1  0  0  0  0
 23 24  2  0  0  0  0
 24 25  1  0  0  0  0
 24 26  1  0  0  0  0
 25 27  2  0  0  0  0
 25 28  1  0  0  0  0
 26 31  1  0  0  0  0
 28 29  2  0  0  0  0
 28 30  1  0  0  0  0
 30 31  1  0  0  0  0
 30 32  1  0  0  0  0
 32 33  1  0  0  0  0
 32 34  1  0  0  0  0
 32 35  1  0  0  0  0
 34 35  1  0  0  0  0
 35 36  2  0  0  0  0
 37 38  1  0  0  0  0
 39 40  1  0  0  0  0
 40 41  1  0  0  0  0
 40 48  1  0  0  0  0
 41 42  1  0  0  0  0
 42 43  2  0  0  0  0
 42 44  1  0  0  0  0
 43 45  1  0  0  0  0
 44 46  1  0  0  0  0
 44 47  2  0  0  0  0
 46 48  1  0  0  0  0
 46 49  2  0  0  0  0
 48 50  2  0  0  0  0
 51 52  1  0  0  0  0
 51 53  1  0  0  0  0
 52 53  1  0  0  0  0
M  END
