
 OpenBabel11222021563D

 54 63  0  0  1  0  0  0  0  0999 V2000
  -10.9060   15.6680   67.2060 C   0  0  0  0  0  0  0  0  0  0  0  0
  -10.6270   16.8230   67.8610 C   0  0  0  0  0  0  0  0  0  0  0  0
  -10.8840   16.9630   69.2380 O   0  0  0  0  0  0  0  0  0  0  0  0
  -11.5410   15.9600   69.9520 C   0  0  0  0  0  0  0  0  0  0  0  0
  -11.8380   14.7880   69.3680 C   0  0  0  0  0  0  0  0  0  0  0  0
  -11.5700   14.5220   67.9240 C   0  0  0  0  0  0  0  0  0  0  0  0
  -12.5130   13.6700   70.1020 C   0  0  0  0  0  0  0  0  0  0  0  0
  -11.6700   12.5330   70.0670 O   0  0  0  0  0  0  0  0  0  0  0  0
  -12.2380   11.4060   70.5850 C   0  0  0  0  0  0  0  0  0  0  0  0
  -11.8560   10.2900   70.2810 O   0  0  0  0  0  0  0  0  0  0  0  0
  -13.2900   11.6450   71.4090 O   0  0  0  0  0  0  0  0  0  0  0  0
  -13.2090   12.7830   72.2590 C   0  0  0  0  0  0  0  0  0  0  0  0
  -12.7110   13.9870   71.5300 C   0  0  0  0  0  0  0  0  0  0  0  0
  -12.4390   15.2040   72.0560 C   0  0  0  0  0  0  0  0  0  0  0  0
  -11.8940   16.2080   71.2650 O   0  0  0  0  0  0  0  0  0  0  0  0
  -14.5130   13.1250   72.6820 O   0  0  0  0  0  0  0  0  0  0  0  0
  -10.0330   18.0430   67.2110 C   0  0  0  0  0  0  0  0  0  0  0  0
  -10.7850   18.7550   66.2720 C   0  0  0  0  0  0  0  0  0  0  0  0
  -10.3000   19.8370   65.6580 N   0  0  0  0  0  0  0  0  0  0  0  0
  -11.0760   20.4800   64.7630 F   0  0  0  0  0  0  0  0  0  0  0  0
   -9.0810   20.2880   65.8740 N   0  0  0  0  0  0  0  0  0  0  0  0
   -8.2840   19.6590   66.7410 C   0  0  0  0  0  0  0  0  0  0  0  0
   -8.7140   18.5180   67.4540 C   0  0  0  0  0  0  0  0  0  0  0  0
   -6.9850   20.1450   66.9440 C   0  0  0  0  0  0  0  0  0  0  0  0
   -7.7870   17.9250   68.3480 C   0  0  0  0  0  0  0  0  0  0  0  0
   -6.4760   18.3900   68.4740 C   0  0  0  0  0  0  0  0  0  0  0  0
   -6.0740   19.5330   67.8040 C   0  0  0  0  0  0  0  0  0  0  0  0
   -5.5060   17.6080   69.2620 C   0  0  0  0  0  0  0  0  0  0  0  0
   -4.8230   20.0870   67.9490 O   0  0  0  0  0  0  0  0  0  0  0  0
   -4.0810   19.5610   69.0820 C   0  0  0  0  0  0  0  0  0  0  0  0
   -4.0700   18.0870   69.1600 C   0  0  0  0  0  0  0  0  0  0  0  0
   -2.9390   20.2910   69.5200 N   0  0  0  0  0  0  0  0  0  0  0  0
   -4.1500   20.2710   70.3960 C   0  0  0  0  0  0  0  0  0  0  0  0
   -3.1370   17.3380   68.9480 O   0  0  0  0  0  0  0  0  0  0  0  0
   -5.0860   21.3840   70.2290 O   0  0  0  0  0  0  0  0  0  0  0  0
   -4.1800   21.4830   71.1750 C   0  0  0  0  0  0  0  0  0  0  0  0
   -4.3190   21.6720   72.3740 O   0  0  0  0  0  0  0  0  0  0  0  0
   -5.8510   16.6130   69.8780 O   0  0  0  0  0  0  0  0  0  0  0  0
   -6.5960   21.2350   66.2650 F   0  0  0  0  0  0  0  0  0  0  0  0
  -10.6680   15.5200   65.8420 O   0  0  0  0  0  0  0  0  0  0  0  0
  -10.4160   14.1820   65.3460 C   0  0  0  0  0  0  0  0  0  0  0  0
   -9.8310   13.3670   66.3460 O   0  0  0  0  0  0  0  0  0  0  0  0
   -9.5500   12.0660   65.9490 C   0  0  0  0  0  0  0  0  0  0  0  0
   -8.5320   11.3890   66.4950 C   0  0  0  0  0  0  0  0  0  0  0  0
  -10.3640   11.3490   64.9170 C   0  0  0  0  0  0  0  0  0  0  0  0
   -7.6910   11.9280   67.4330 O   0  0  0  0  0  0  0  0  0  0  0  0
  -11.4630   12.1870   64.2940 C   0  0  0  0  0  0  0  0  0  0  0  0
  -10.1520   10.2060   64.5540 O   0  0  0  0  0  0  0  0  0  0  0  0
  -11.7070   13.5720   64.8350 C   0  0  0  0  0  0  0  0  0  0  0  0
  -12.0430   11.8370   63.2800 O   0  0  0  0  0  0  0  0  0  0  0  0
  -12.7800   14.1520   64.7480 O   0  0  0  0  0  0  0  0  0  0  0  0
  -12.6470   15.5480   73.4800 C   0  0  0  0  0  0  0  0  0  0  0  0
  -12.2840   16.8400   73.9820 O   0  0  0  0  0  0  0  0  0  0  0  0
  -13.6740   16.4840   73.8530 O   0  0  0  0  0  0  0  0  0  0  0  0
  1 40  1  0  0  0  0
  1  2  2  0  0  0  0
  1  6  1  0  0  0  0
  2  3  1  0  0  0  0
  2 17  1  0  0  0  0
  3  4  1  0  0  0  0
  4  5  2  0  0  0  0
  4 15  1  0  0  0  0
  5  6  1  0  0  0  0
  5  7  1  0  0  0  0
  7  8  1  0  0  0  0
  7 13  1  0  0  0  0
  8  9  1  0  0  0  0
  9 10  2  0  0  0  0
  9 11  1  0  0  0  0
 11 12  1  0  0  0  0
 12 13  1  0  0  0  0
 12 16  1  0  0  0  0
 13 14  2  0  0  0  0
 14 15  1  0  0  0  0
 14 52  1  0  0  0  0
 17 18  2  0  0  0  0
 17 23  1  0  0  0  0
 18 19  1  0  0  0  0
 19 20  1  0  0  0  0
 19 21  2  0  0  0  0
 21 22  1  0  0  0  0
 22 23  2  0  0  0  0
 22 24  1  0  0  0  0
 23 25  1  0  0  0  0
 24 27  2  0  0  0  0
 24 39  1  0  0  0  0
 25 26  2  0  0  0  0
 26 27  1  0  0  0  0
 26 28  1  0  0  0  0
 27 29  1  0  0  0  0
 28 31  1  0  0  0  0
 28 38  2  0  0  0  0
 29 30  1  0  0  0  0
 30 31  1  0  0  0  0
 30 32  1  0  0  0  0
 30 33  1  0  0  0  0
 31 34  2  0  0  0  0
 32 33  1  0  0  0  0
 33 35  1  0  0  0  0
 33 36  1  0  0  0  0
 35 36  1  0  0  0  0
 36 37  2  0  0  0  0
 40 41  1  0  0  0  0
 41 42  1  0  0  0  0
 41 49  1  0  0  0  0
 42 43  1  0  0  0  0
 43 44  2  0  0  0  0
 43 45  1  0  0  0  0
 44 46  1  0  0  0  0
 45 47  1  0  0  0  0
 45 48  2  0  0  0  0
 47 49  1  0  0  0  0
 47 50  2  0  0  0  0
 49 51  2  0  0  0  0
 52 53  1  0  0  0  0
 52 54  1  0  0  0  0
 53 54  1  0  0  0  0
M  CHG  2  15   1  19   1
M  END