
 OpenBabel11222014593D

 54 63  0  0  1  0  0  0  0  0999 V2000
  -10.8570   15.5520   67.3960 C   0  0  0  0  0  0  0  0  0  0  0  0
  -10.5470   16.7330   67.9940 C   0  0  0  0  0  0  0  0  0  0  0  0
  -10.8400   16.9410   69.3780 O   0  0  0  0  0  0  0  0  0  0  0  0
  -11.4610   15.9300   70.1510 C   0  0  0  0  0  0  0  0  0  0  0  0
  -11.8940   14.8060   69.5600 C   0  0  0  0  0  0  0  0  0  0  0  0
  -11.6790   14.5160   68.1170 C   0  0  0  0  0  0  0  0  0  0  0  0
  -12.6490   13.7390   70.2990 C   0  0  0  0  0  0  0  0  0  0  0  0
  -11.9100   12.5410   70.1880 O   0  0  0  0  0  0  0  0  0  0  0  0
  -12.5290   11.4350   70.6880 C   0  0  0  0  0  0  0  0  0  0  0  0
  -12.2800   10.3300   70.2590 O   0  0  0  0  0  0  0  0  0  0  0  0
  -13.4450   11.6800   71.6600 O   0  0  0  0  0  0  0  0  0  0  0  0
  -13.4970   12.9020   72.3930 C   0  0  0  0  0  0  0  0  0  0  0  0
  -12.7410   14.0110   71.7430 C   0  0  0  0  0  0  0  0  0  0  0  0
  -12.2260   15.1220   72.3140 C   0  0  0  0  0  0  0  0  0  0  0  0
  -11.6230   16.1040   71.5200 O   0  0  0  0  0  0  0  0  0  0  0  0
  -14.8320   13.3720   72.3910 O   0  0  0  0  0  0  0  0  0  0  0  0
   -9.7570   17.8630   67.3370 C   0  0  0  0  0  0  0  0  0  0  0  0
  -10.4750   18.7100   66.4760 C   0  0  0  0  0  0  0  0  0  0  0  0
   -9.9150   19.8030   65.9450 N   0  0  0  0  0  0  0  0  0  0  0  0
  -10.6290   20.5680   65.0930 F   0  0  0  0  0  0  0  0  0  0  0  0
   -8.7010   20.1960   66.2640 N   0  0  0  0  0  0  0  0  0  0  0  0
   -7.9410   19.4470   67.0590 C   0  0  0  0  0  0  0  0  0  0  0  0
   -8.3650   18.1920   67.5550 C   0  0  0  0  0  0  0  0  0  0  0  0
   -6.6870   19.9520   67.4310 C   0  0  0  0  0  0  0  0  0  0  0  0
   -7.3530   17.4120   68.2340 C   0  0  0  0  0  0  0  0  0  0  0  0
   -6.1180   17.9710   68.6210 C   0  0  0  0  0  0  0  0  0  0  0  0
   -5.8040   19.2720   68.2730 C   0  0  0  0  0  0  0  0  0  0  0  0
   -5.1400   17.3690   69.4810 C   0  0  0  0  0  0  0  0  0  0  0  0
   -4.6420   19.9040   68.6540 O   0  0  0  0  0  0  0  0  0  0  0  0
   -3.9380   19.5340   69.8830 C   0  0  0  0  0  0  0  0  0  0  0  0
   -4.1010   18.1050   70.0820 C   0  0  0  0  0  0  0  0  0  0  0  0
   -3.6480   17.0640   70.6520 O   0  0  0  0  0  0  0  0  0  0  0  0
   -4.7270   16.3140   70.0790 O   0  0  0  0  0  0  0  0  0  0  0  0
   -6.3280   21.1680   66.9970 F   0  0  0  0  0  0  0  0  0  0  0  0
   -4.4110   20.3810   71.0350 C   0  0  0  0  0  0  0  0  0  0  0  0
   -5.8060   20.6830   71.0620 O   0  0  0  0  0  0  0  0  0  0  0  0
   -3.8080   20.1690   72.2770 O   0  0  0  0  0  0  0  0  0  0  0  0
   -3.4620   21.3360   71.6550 C   0  0  0  0  0  0  0  0  0  0  0  0
   -2.3720   21.5500   71.1480 O   0  0  0  0  0  0  0  0  0  0  0  0
  -10.3970   15.2340   66.1260 O   0  0  0  0  0  0  0  0  0  0  0  0
  -10.1480   13.8580   65.7450 C   0  0  0  0  0  0  0  0  0  0  0  0
  -10.5290   12.9310   66.7660 O   0  0  0  0  0  0  0  0  0  0  0  0
  -10.1330   11.6360   66.4370 C   0  0  0  0  0  0  0  0  0  0  0  0
   -9.5330   10.8550   67.3390 C   0  0  0  0  0  0  0  0  0  0  0  0
  -10.3930   11.1290   65.0580 C   0  0  0  0  0  0  0  0  0  0  0  0
   -9.2490   11.2960   68.6080 O   0  0  0  0  0  0  0  0  0  0  0  0
  -11.2530   12.1110   64.2920 C   0  0  0  0  0  0  0  0  0  0  0  0
   -9.9460   10.1240   64.5520 O   0  0  0  0  0  0  0  0  0  0  0  0
  -11.1330   13.5670   64.6260 C   0  0  0  0  0  0  0  0  0  0  0  0
  -12.2190   11.7910   63.6150 O   0  0  0  0  0  0  0  0  0  0  0  0
  -11.9850   14.3450   64.1890 O   0  0  0  0  0  0  0  0  0  0  0  0
  -12.2750   15.4140   73.7720 C   0  0  0  0  0  0  0  0  0  0  0  0
  -12.0090   16.7480   74.2430 O   0  0  0  0  0  0  0  0  0  0  0  0
  -13.3400   16.2060   74.3200 O   0  0  0  0  0  0  0  0  0  0  0  0
  1 40  1  0  0  0  0
  1  2  2  0  0  0  0
  1  6  1  0  0  0  0
  2  3  1  0  0  0  0
  2 17  1  0  0  0  0
  3  4  1  0  0  0  0
  4  5  2  0  0  0  0
  4 15  1  0  0  0  0
  5  6  1  0  0  0  0
  5  7  1  0  0  0  0
  7  8  1  0  0  0  0
  7 13  1  0  0  0  0
  8  9  1  0  0  0  0
  9 10  2  0  0  0  0
  9 11  1  0  0  0  0
 11 12  1  0  0  0  0
 12 13  1  0  0  0  0
 12 16  1  0  0  0  0
 13 14  2  0  0  0  0
 14 15  1  0  0  0  0
 14 52  1  0  0  0  0
 17 18  2  0  0  0  0
 17 23  1  0  0  0  0
 18 19  1  0  0  0  0
 19 20  1  0  0  0  0
 19 21  2  0  0  0  0
 21 22  1  0  0  0  0
 22 23  2  0  0  0  0
 22 24  1  0  0  0  0
 23 25  1  0  0  0  0
 24 27  2  0  0  0  0
 24 34  1  0  0  0  0
 25 26  2  0  0  0  0
 26 27  1  0  0  0  0
 26 28  1  0  0  0  0
 27 29  1  0  0  0  0
 28 31  1  0  0  0  0
 28 33  2  0  0  0  0
 29 30  1  0  0  0  0
 30 31  1  0  0  0  0
 30 35  1  0  0  0  0
 31 32  2  0  0  0  0
 32 33  1  0  0  0  0
 35 36  1  0  0  0  0
 35 37  1  0  0  0  0
 35 38  1  0  0  0  0
 37 38  1  0  0  0  0
 38 39  2  0  0  0  0
 40 41  1  0  0  0  0
 41 42  1  0  0  0  0
 41 49  1  0  0  0  0
 42 43  1  0  0  0  0
 43 44  2  0  0  0  0
 43 45  1  0  0  0  0
 44 46  1  0  0  0  0
 45 47  1  0  0  0  0
 45 48  2  0  0  0  0
 47 49  1  0  0  0  0
 47 50  2  0  0  0  0
 49 51  2  0  0  0  0
 52 53  1  0  0  0  0
 52 54  1  0  0  0  0
 53 54  1  0  0  0  0
M  CHG  4  15   1  19   1  32   1  33   1
M  END