
 OpenBabel11242000363D

 54 63  0  0  1  0  0  0  0  0999 V2000
  -10.7110   15.5580   67.1900 C   0  0  0  0  0  0  0  0  0  0  0  0
  -10.5020   16.7100   67.8710 C   0  0  0  0  0  0  0  0  0  0  0  0
  -10.9280   16.8590   69.1930 N   0  0  0  0  0  0  0  0  0  0  0  0
  -11.5970   15.8460   69.8790 C   0  0  0  0  0  0  0  0  0  0  0  0
  -11.8920   14.6810   69.2650 C   0  0  0  0  0  0  0  0  0  0  0  0
  -11.5210   14.4310   67.8190 C   0  0  0  0  0  0  0  0  0  0  0  0
  -12.6130   13.5640   69.9750 C   0  0  0  0  0  0  0  0  0  0  0  0
  -11.8190   12.3900   69.9050 O   0  0  0  0  0  0  0  0  0  0  0  0
  -12.4120   11.2750   70.4260 C   0  0  0  0  0  0  0  0  0  0  0  0
  -12.0590   10.1500   70.1200 O   0  0  0  0  0  0  0  0  0  0  0  0
  -13.4410   11.5370   71.2720 O   0  0  0  0  0  0  0  0  0  0  0  0
  -13.2800   12.6450   72.1450 C   0  0  0  0  0  0  0  0  0  0  0  0
  -12.7710   13.8460   71.4220 C   0  0  0  0  0  0  0  0  0  0  0  0
  -12.4330   15.0280   71.9820 C   0  0  0  0  0  0  0  0  0  0  0  0
  -11.9170   16.0580   71.2050 O   0  0  0  0  0  0  0  0  0  0  0  0
  -14.5480   13.0240   72.6430 O   0  0  0  0  0  0  0  0  0  0  0  0
   -9.7000   17.8140   67.2720 C   0  0  0  0  0  0  0  0  0  0  0  0
  -10.3970   18.7620   66.5200 C   0  0  0  0  0  0  0  0  0  0  0  0
   -9.7570   19.7720   65.9230 N   0  0  0  0  0  0  0  0  0  0  0  0
  -10.4630   20.6640   65.2010 F   0  0  0  0  0  0  0  0  0  0  0  0
   -8.4510   19.9200   65.9920 N   0  0  0  0  0  0  0  0  0  0  0  0
   -7.7300   19.0950   66.7500 C   0  0  0  0  0  0  0  0  0  0  0  0
   -8.3060   18.0060   67.4450 C   0  0  0  0  0  0  0  0  0  0  0  0
   -6.3640   19.3420   66.8740 C   0  0  0  0  0  0  0  0  0  0  0  0
   -7.4580   17.2230   68.2750 C   0  0  0  0  0  0  0  0  0  0  0  0
   -6.0980   17.5500   68.4340 C   0  0  0  0  0  0  0  0  0  0  0  0
   -5.5530   18.6090   67.7300 C   0  0  0  0  0  0  0  0  0  0  0  0
   -5.2320   16.8140   69.3730 C   0  0  0  0  0  0  0  0  0  0  0  0
   -4.2390   18.9760   67.8650 O   0  0  0  0  0  0  0  0  0  0  0  0
   -3.7680   18.8190   69.2260 C   0  0  0  0  0  0  0  0  0  0  0  0
   -3.9190   17.4680   69.7980 C   0  0  0  0  0  0  0  0  0  0  0  0
   -2.6340   19.5610   69.5890 O   0  0  0  0  0  0  0  0  0  0  0  0
   -3.9010   19.9680   70.1880 C   0  0  0  0  0  0  0  0  0  0  0  0
   -3.1660   16.9700   70.6140 O   0  0  0  0  0  0  0  0  0  0  0  0
   -4.7090   20.9850   69.4920 O   0  0  0  0  0  0  0  0  0  0  0  0
   -3.8310   21.3970   70.3810 C   0  0  0  0  0  0  0  0  0  0  0  0
   -3.9870   22.1040   71.3570 O   0  0  0  0  0  0  0  0  0  0  0  0
   -5.6090   15.7430   69.8210 O   0  0  0  0  0  0  0  0  0  0  0  0
   -5.8250   20.3580   66.1830 F   0  0  0  0  0  0  0  0  0  0  0  0
  -10.2280   15.4020   65.9020 O   0  0  0  0  0  0  0  0  0  0  0  0
  -10.0200   14.0590   65.4160 C   0  0  0  0  0  0  0  0  0  0  0  0
   -9.7540   13.1600   66.4780 O   0  0  0  0  0  0  0  0  0  0  0  0
   -9.5070   11.8640   66.0480 C   0  0  0  0  0  0  0  0  0  0  0  0
   -8.6130   11.0910   66.6780 C   0  0  0  0  0  0  0  0  0  0  0  0
  -10.2260   11.2880   64.8710 C   0  0  0  0  0  0  0  0  0  0  0  0
   -7.8730   11.5300   67.7480 O   0  0  0  0  0  0  0  0  0  0  0  0
  -11.2800   12.2070   64.2770 C   0  0  0  0  0  0  0  0  0  0  0  0
   -9.9480   10.2180   64.3590 O   0  0  0  0  0  0  0  0  0  0  0  0
  -11.2710   13.6710   64.6540 C   0  0  0  0  0  0  0  0  0  0  0  0
  -12.0780   11.8050   63.4480 O   0  0  0  0  0  0  0  0  0  0  0  0
  -12.1230   14.4620   64.2710 O   0  0  0  0  0  0  0  0  0  0  0  0
  -12.5320   15.3030   73.4360 C   0  0  0  0  0  0  0  0  0  0  0  0
  -12.1050   16.5620   73.9730 O   0  0  0  0  0  0  0  0  0  0  0  0
  -13.5080   16.2390   73.9310 O   0  0  0  0  0  0  0  0  0  0  0  0
  1 40  1  0  0  0  0
  1  2  2  0  0  0  0
  1  6  1  0  0  0  0
  2  3  1  0  0  0  0
  2 17  1  0  0  0  0
  3  4  1  0  0  0  0
  4  5  2  0  0  0  0
  4 15  1  0  0  0  0
  5  6  1  0  0  0  0
  5  7  1  0  0  0  0
  7  8  1  0  0  0  0
  7 13  1  0  0  0  0
  8  9  1  0  0  0  0
  9 10  2  0  0  0  0
  9 11  1  0  0  0  0
 11 12  1  0  0  0  0
 12 13  1  0  0  0  0
 12 16  1  0  0  0  0
 13 14  2  0  0  0  0
 14 15  1  0  0  0  0
 14 52  1  0  0  0  0
 17 18  2  0  0  0  0
 17 23  1  0  0  0  0
 18 19  1  0  0  0  0
 19 20  1  0  0  0  0
 19 21  2  0  0  0  0
 21 22  1  0  0  0  0
 22 23  2  0  0  0  0
 22 24  1  0  0  0  0
 23 25  1  0  0  0  0
 24 27  2  0  0  0  0
 24 39  1  0  0  0  0
 25 26  2  0  0  0  0
 26 27  1  0  0  0  0
 26 28  1  0  0  0  0
 27 29  1  0  0  0  0
 28 31  1  0  0  0  0
 28 38  2  0  0  0  0
 29 30  1  0  0  0  0
 30 31  1  0  0  0  0
 30 32  1  0  0  0  0
 30 33  1  0  0  0  0
 31 34  2  0  0  0  0
 32 33  1  0  0  0  0
 33 35  1  0  0  0  0
 33 36  1  0  0  0  0
 35 36  1  0  0  0  0
 36 37  2  0  0  0  0
 40 41  1  0  0  0  0
 41 42  1  0  0  0  0
 41 49  1  0  0  0  0
 42 43  1  0  0  0  0
 43 44  2  0  0  0  0
 43 45  1  0  0  0  0
 44 46  1  0  0  0  0
 45 47  1  0  0  0  0
 45 48  2  0  0  0  0
 47 49  1  0  0  0  0
 47 50  2  0  0  0  0
 49 51  2  0  0  0  0
 52 53  1  0  0  0  0
 52 54  1  0  0  0  0
 53 54  1  0  0  0  0
M  CHG  2  15   1  19   1
M  END