
 OpenBabel11262002113D

 54 62  0  0  1  0  0  0  0  0999 V2000
  -10.2710   15.5620   67.4900 C   0  0  0  0  0  0  0  0  0  0  0  0
  -10.0650   16.7760   68.0680 C   0  0  0  0  0  0  0  0  0  0  0  0
  -10.3730   16.9960   69.4520 O   0  0  0  0  0  0  0  0  0  0  0  0
  -11.1520   16.0330   70.1630 C   0  0  0  0  0  0  0  0  0  0  0  0
  -11.3290   14.8150   69.6390 C   0  0  0  0  0  0  0  0  0  0  0  0
  -10.6480   14.4260   68.3940 C   0  0  0  0  0  0  0  0  0  0  0  0
  -12.2870   13.7780   70.1930 C   0  0  0  0  0  0  0  0  0  0  0  0
  -11.5940   12.5830   70.4590 O   0  0  0  0  0  0  0  0  0  0  0  0
  -12.3600   11.5660   70.9640 C   0  0  0  0  0  0  0  0  0  0  0  0
  -12.0160   10.4040   70.8280 O   0  0  0  0  0  0  0  0  0  0  0  0
  -13.4990   11.9240   71.6180 O   0  0  0  0  0  0  0  0  0  0  0  0
  -13.7500   13.1950   71.9810 C   0  0  0  0  0  0  0  0  0  0  0  0
  -14.7260   13.5350   72.6300 O   0  0  0  0  0  0  0  0  0  0  0  0
  -12.8390   14.2170   71.4670 C   0  0  0  0  0  0  0  0  0  0  0  0
  -12.5580   15.4070   72.0380 C   0  0  0  0  0  0  0  0  0  0  0  0
  -11.7310   16.3330   71.3860 O   0  0  0  0  0  0  0  0  0  0  0  0
   -9.4880   17.9750   67.3520 C   0  0  0  0  0  0  0  0  0  0  0  0
  -10.3080   18.7390   66.4990 C   0  0  0  0  0  0  0  0  0  0  0  0
   -9.8400   19.8590   65.9310 N   0  0  0  0  0  0  0  0  0  0  0  0
  -10.6490   20.6090   65.1540 F   0  0  0  0  0  0  0  0  0  0  0  0
   -8.6180   20.2900   66.1400 N   0  0  0  0  0  0  0  0  0  0  0  0
   -7.8150   19.6090   66.9640 C   0  0  0  0  0  0  0  0  0  0  0  0
   -8.2030   18.4280   67.5930 N   0  0  0  0  0  0  0  0  0  0  0  0
   -6.5710   20.1660   67.2580 C   0  0  0  0  0  0  0  0  0  0  0  0
   -7.3150   17.8110   68.4280 C   0  0  0  0  0  0  0  0  0  0  0  0
   -6.0840   18.3970   68.7310 C   0  0  0  0  0  0  0  0  0  0  0  0
   -5.2000   17.7620   69.6940 C   0  0  0  0  0  0  0  0  0  0  0  0
   -5.7200   19.6090   68.1960 C   0  0  0  0  0  0  0  0  0  0  0  0
   -5.6140   16.8220   70.3460 O   0  0  0  0  0  0  0  0  0  0  0  0
   -3.8620   18.4330   69.9050 C   0  0  0  0  0  0  0  0  0  0  0  0
   -2.8650   17.7690   70.1290 O   0  0  0  0  0  0  0  0  0  0  0  0
   -3.9380   19.9350   69.7970 C   0  0  0  0  0  0  0  0  0  0  0  0
   -4.6020   20.3040   68.5530 O   0  0  0  0  0  0  0  0  0  0  0  0
   -6.2270   21.3150   66.6580 F   0  0  0  0  0  0  0  0  0  0  0  0
   -4.6160   20.5820   70.9830 C   0  0  0  0  0  0  0  0  0  0  0  0
   -6.0630   20.5750   70.9560 O   0  0  0  0  0  0  0  0  0  0  0  0
   -4.0460   20.2110   72.2400 O   0  0  0  0  0  0  0  0  0  0  0  0
   -3.9920   21.5090   71.9030 C   0  0  0  0  0  0  0  0  0  0  0  0
   -4.4620   22.4550   72.5410 O   0  0  0  0  0  0  0  0  0  0  0  0
  -10.1890   15.3420   66.1170 O   0  0  0  0  0  0  0  0  0  0  0  0
   -9.9720   14.0080   65.4660 C   0  0  0  0  0  0  0  0  0  0  0  0
   -9.3290   13.1610   66.4250 O   0  0  0  0  0  0  0  0  0  0  0  0
   -9.5700   11.8120   66.2280 C   0  0  0  0  0  0  0  0  0  0  0  0
   -8.5860   10.9170   66.1090 C   0  0  0  0  0  0  0  0  0  0  0  0
  -10.9770   11.3590   66.0870 C   0  0  0  0  0  0  0  0  0  0  0  0
   -7.2650   11.2880   66.1140 O   0  0  0  0  0  0  0  0  0  0  0  0
  -11.7230   12.2430   65.1780 C   0  0  0  0  0  0  0  0  0  0  0  0
  -11.4550   10.4030   66.6710 O   0  0  0  0  0  0  0  0  0  0  0  0
  -11.1860   13.4060   64.7900 C   0  0  0  0  0  0  0  0  0  0  0  0
  -12.9810   11.8930   64.8530 F   0  0  0  0  0  0  0  0  0  0  0  0
  -11.8630   14.1720   63.8980 F   0  0  0  0  0  0  0  0  0  0  0  0
  -13.0920   15.8410   73.3480 C   0  0  0  0  0  0  0  0  0  0  0  0
  -12.3960   15.4610   74.5500 O   0  0  0  0  0  0  0  0  0  0  0  0
  -12.4330   16.8390   74.1330 O   0  0  0  0  0  0  0  0  0  0  0  0
  1 40  1  0  0  0  0
  1  2  2  0  0  0  0
  1  6  1  0  0  0  0
  2  3  1  0  0  0  0
  2 17  1  0  0  0  0
  3  4  1  0  0  0  0
  4  5  2  0  0  0  0
  4 16  1  0  0  0  0
  5  6  1  0  0  0  0
  5  7  1  0  0  0  0
  7  8  1  0  0  0  0
  7 14  1  0  0  0  0
  8  9  1  0  0  0  0
  9 10  2  0  0  0  0
  9 11  1  0  0  0  0
 11 12  1  0  0  0  0
 12 13  2  0  0  0  0
 12 14  1  0  0  0  0
 14 15  2  0  0  0  0
 15 16  1  0  0  0  0
 15 52  1  0  0  0  0
 17 18  2  0  0  0  0
 17 23  1  0  0  0  0
 18 19  1  0  0  0  0
 19 20  1  0  0  0  0
 19 21  2  0  0  0  0
 21 22  1  0  0  0  0
 22 23  2  0  0  0  0
 22 24  1  0  0  0  0
 23 25  1  0  0  0  0
 24 28  2  0  0  0  0
 24 34  1  0  0  0  0
 25 26  2  0  0  0  0
 26 27  1  0  0  0  0
 26 28  1  0  0  0  0
 27 29  2  0  0  0  0
 27 30  1  0  0  0  0
 28 33  1  0  0  0  0
 30 31  2  0  0  0  0
 30 32  1  0  0  0  0
 32 33  1  0  0  0  0
 32 35  1  0  0  0  0
 35 36  1  0  0  0  0
 35 37  1  0  0  0  0
 35 38  1  0  0  0  0
 37 38  1  0  0  0  0
 38 39  2  0  0  0  0
 40 41  1  0  0  0  0
 41 42  1  0  0  0  0
 41 49  1  0  0  0  0
 42 43  1  0  0  0  0
 43 44  2  0  0  0  0
 43 45  1  0  0  0  0
 44 46  1  0  0  0  0
 45 47  1  0  0  0  0
 45 48  2  0  0  0  0
 47 49  2  0  0  0  0
 47 50  1  0  0  0  0
 49 51  1  0  0  0  0
 52 53  1  0  0  0  0
 52 54  1  0  0  0  0
 53 54  1  0  0  0  0
M  CHG  3  16   1  19   1  23   1
M  END