
 OpenBabel11212020353D

 54 62  0  0  1  0  0  0  0  0999 V2000
  -10.8390   15.6990   67.1530 C   0  0  0  0  0  0  0  0  0  0  0  0
  -10.5810   16.8080   67.8750 C   0  0  0  0  0  0  0  0  0  0  0  0
  -10.9010   16.9390   69.2190 O   0  0  0  0  0  0  0  0  0  0  0  0
  -11.5160   15.8870   69.8790 C   0  0  0  0  0  0  0  0  0  0  0  0
  -11.7850   14.7210   69.2610 C   0  0  0  0  0  0  0  0  0  0  0  0
  -11.4570   14.4930   67.8120 C   0  0  0  0  0  0  0  0  0  0  0  0
  -12.4730   13.5920   69.9750 C   0  0  0  0  0  0  0  0  0  0  0  0
  -11.6370   12.4470   69.9370 O   0  0  0  0  0  0  0  0  0  0  0  0
  -12.1910   11.3210   70.4690 C   0  0  0  0  0  0  0  0  0  0  0  0
  -11.7930   10.2040   70.1900 O   0  0  0  0  0  0  0  0  0  0  0  0
  -13.2500   11.5510   71.2880 O   0  0  0  0  0  0  0  0  0  0  0  0
  -13.1800   12.6880   72.1350 C   0  0  0  0  0  0  0  0  0  0  0  0
  -12.6840   13.8920   71.4120 C   0  0  0  0  0  0  0  0  0  0  0  0
  -12.3930   15.0900   71.9650 C   0  0  0  0  0  0  0  0  0  0  0  0
  -11.8430   16.0990   71.1950 O   0  0  0  0  0  0  0  0  0  0  0  0
  -14.4880   13.0150   72.5620 O   0  0  0  0  0  0  0  0  0  0  0  0
   -9.9190   17.9950   67.3030 C   0  0  0  0  0  0  0  0  0  0  0  0
  -10.6700   18.6580   66.4070 N   0  0  0  0  0  0  0  0  0  0  0  0
  -10.1130   19.7580   65.8910 C   0  0  0  0  0  0  0  0  0  0  0  0
  -10.8510   20.4640   65.0240 F   0  0  0  0  0  0  0  0  0  0  0  0
   -8.8760   20.2020   66.1430 N   0  0  0  0  0  0  0  0  0  0  0  0
   -8.1290   19.5140   67.0200 C   0  0  0  0  0  0  0  0  0  0  0  0
   -8.6140   18.3620   67.6530 C   0  0  0  0  0  0  0  0  0  0  0  0
   -6.8310   19.9680   67.3420 C   0  0  0  0  0  0  0  0  0  0  0  0
   -7.7940   17.6540   68.5600 C   0  0  0  0  0  0  0  0  0  0  0  0
   -6.5090   18.1070   68.8460 C   0  0  0  0  0  0  0  0  0  0  0  0
   -5.6690   17.3620   69.7860 C   0  0  0  0  0  0  0  0  0  0  0  0
   -6.0240   19.2660   68.2590 C   0  0  0  0  0  0  0  0  0  0  0  0
   -6.0480   16.3240   70.3050 O   0  0  0  0  0  0  0  0  0  0  0  0
   -4.3060   17.9420   70.0630 C   0  0  0  0  0  0  0  0  0  0  0  0
   -3.3930   17.2260   70.4480 O   0  0  0  0  0  0  0  0  0  0  0  0
   -4.2150   19.4280   69.8200 C   0  0  0  0  0  0  0  0  0  0  0  0
   -4.8060   19.8230   68.5690 O   0  0  0  0  0  0  0  0  0  0  0  0
   -6.2600   21.0320   66.5940 N   0  0  0  0  0  0  0  0  0  0  0  0
   -4.7110   20.2270   71.0030 C   0  0  0  0  0  0  0  0  0  0  0  0
   -6.0890   20.6470   70.9430 O   0  0  0  0  0  0  0  0  0  0  0  0
   -4.2710   19.7710   72.2950 O   0  0  0  0  0  0  0  0  0  0  0  0
   -3.8700   20.9780   71.9050 C   0  0  0  0  0  0  0  0  0  0  0  0
   -2.7730   21.5030   71.7810 O   0  0  0  0  0  0  0  0  0  0  0  0
  -10.4690   15.6330   65.8170 O   0  0  0  0  0  0  0  0  0  0  0  0
  -10.3950   14.3390   65.2080 C   0  0  0  0  0  0  0  0  0  0  0  0
  -10.0040   13.3530   66.1640 O   0  0  0  0  0  0  0  0  0  0  0  0
   -9.8190   12.0900   65.6320 C   0  0  0  0  0  0  0  0  0  0  0  0
   -8.9320   11.2450   66.1700 C   0  0  0  0  0  0  0  0  0  0  0  0
  -10.6190   11.6190   64.4660 C   0  0  0  0  0  0  0  0  0  0  0  0
   -8.1300   11.5810   67.2320 O   0  0  0  0  0  0  0  0  0  0  0  0
  -11.7400   12.5580   64.0650 C   0  0  0  0  0  0  0  0  0  0  0  0
  -10.3740   10.5990   63.8440 O   0  0  0  0  0  0  0  0  0  0  0  0
  -11.7450   13.9620   64.6220 C   0  0  0  0  0  0  0  0  0  0  0  0
  -12.6000   12.1990   63.2780 O   0  0  0  0  0  0  0  0  0  0  0  0
  -12.7330   14.6740   64.5540 O   0  0  0  0  0  0  0  0  0  0  0  0
  -12.5880   15.4020   73.3990 C   0  0  0  0  0  0  0  0  0  0  0  0
  -12.0850   16.6200   73.9610 O   0  0  0  0  0  0  0  0  0  0  0  0
  -13.5050   16.4330   73.8050 O   0  0  0  0  0  0  0  0  0  0  0  0
  1 40  1  0  0  0  0
  1  2  2  0  0  0  0
  1  6  1  0  0  0  0
  2  3  1  0  0  0  0
  2 17  1  0  0  0  0
  3  4  1  0  0  0  0
  4  5  2  0  0  0  0
  4 15  1  0  0  0  0
  5  6  1  0  0  0  0
  5  7  1  0  0  0  0
  7  8  1  0  0  0  0
  7 13  1  0  0  0  0
  8  9  1  0  0  0  0
  9 10  2  0  0  0  0
  9 11  1  0  0  0  0
 11 12  1  0  0  0  0
 12 13  1  0  0  0  0
 12 16  1  0  0  0  0
 13 14  2  0  0  0  0
 14 15  1  0  0  0  0
 14 52  1  0  0  0  0
 17 18  2  0  0  0  0
 17 23  1  0  0  0  0
 18 19  1  0  0  0  0
 19 20  1  0  0  0  0
 19 21  2  0  0  0  0
 21 22  1  0  0  0  0
 22 23  2  0  0  0  0
 22 24  1  0  0  0  0
 23 25  1  0  0  0  0
 24 28  2  0  0  0  0
 24 34  1  0  0  0  0
 25 26  2  0  0  0  0
 26 27  1  0  0  0  0
 26 28  1  0  0  0  0
 27 29  2  0  0  0  0
 27 30  1  0  0  0  0
 28 33  1  0  0  0  0
 30 31  2  0  0  0  0
 30 32  1  0  0  0  0
 32 33  1  0  0  0  0
 32 35  1  0  0  0  0
 35 36  1  0  0  0  0
 35 37  1  0  0  0  0
 35 38  1  0  0  0  0
 37 38  1  0  0  0  0
 38 39  2  0  0  0  0
 40 41  1  0  0  0  0
 41 42  1  0  0  0  0
 41 49  1  0  0  0  0
 42 43  1  0  0  0  0
 43 44  2  0  0  0  0
 43 45  1  0  0  0  0
 44 46  1  0  0  0  0
 45 47  1  0  0  0  0
 45 48  2  0  0  0  0
 47 49  1  0  0  0  0
 47 50  2  0  0  0  0
 49 51  2  0  0  0  0
 52 53  1  0  0  0  0
 52 54  1  0  0  0  0
 53 54  1  0  0  0  0
M  CHG  1  15   1
M  END