
 OpenBabel11242002033D

 54 62  0  0  1  0  0  0  0  0999 V2000
  -11.2460   15.8210   67.2860 C   0  0  0  0  0  0  0  0  0  0  0  0
  -10.7090   16.8490   67.9780 C   0  0  0  0  0  0  0  0  0  0  0  0
  -10.8470   16.9910   69.3600 O   0  0  0  0  0  0  0  0  0  0  0  0
  -11.5320   16.0140   70.0880 C   0  0  0  0  0  0  0  0  0  0  0  0
  -12.0350   14.9190   69.4890 C   0  0  0  0  0  0  0  0  0  0  0  0
  -11.9670   14.7100   68.0070 C   0  0  0  0  0  0  0  0  0  0  0  0
  -12.7160   13.8240   70.2640 C   0  0  0  0  0  0  0  0  0  0  0  0
  -11.8950   12.6770   70.1520 O   0  0  0  0  0  0  0  0  0  0  0  0
  -12.2390   11.5630   70.8580 C   0  0  0  0  0  0  0  0  0  0  0  0
  -11.7440   10.4810   70.6110 O   0  0  0  0  0  0  0  0  0  0  0  0
  -13.1420   11.7460   71.8530 O   0  0  0  0  0  0  0  0  0  0  0  0
  -13.4640   13.0140   72.4130 C   0  0  0  0  0  0  0  0  0  0  0  0
  -12.7990   14.1390   71.7060 C   0  0  0  0  0  0  0  0  0  0  0  0
  -12.3100   15.2760   72.2430 C   0  0  0  0  0  0  0  0  0  0  0  0
  -11.6640   16.2070   71.4440 O   0  0  0  0  0  0  0  0  0  0  0  0
  -14.8480   13.2480   72.2550 O   0  0  0  0  0  0  0  0  0  0  0  0
   -9.9090   17.9120   67.3310 C   0  0  0  0  0  0  0  0  0  0  0  0
  -10.5380   18.7520   66.4140 C   0  0  0  0  0  0  0  0  0  0  0  0
   -9.8630   19.7460   65.8240 N   0  0  0  0  0  0  0  0  0  0  0  0
  -10.4930   20.5240   64.9230 F   0  0  0  0  0  0  0  0  0  0  0  0
   -8.5930   19.9930   66.0830 N   0  0  0  0  0  0  0  0  0  0  0  0
   -7.9370   19.2420   66.9750 C   0  0  0  0  0  0  0  0  0  0  0  0
   -8.5530   18.1550   67.6250 C   0  0  0  0  0  0  0  0  0  0  0  0
   -6.6080   19.5420   67.2850 C   0  0  0  0  0  0  0  0  0  0  0  0
   -7.7880   17.3830   68.5300 C   0  0  0  0  0  0  0  0  0  0  0  0
   -6.4570   17.7170   68.8160 C   0  0  0  0  0  0  0  0  0  0  0  0
   -5.6720   16.8950   69.7420 C   0  0  0  0  0  0  0  0  0  0  0  0
   -5.8680   18.8170   68.2210 C   0  0  0  0  0  0  0  0  0  0  0  0
   -6.1110   15.8260   70.1350 O   0  0  0  0  0  0  0  0  0  0  0  0
   -4.3130   17.4230   70.1510 C   0  0  0  0  0  0  0  0  0  0  0  0
   -3.5360   16.7170   70.7750 O   0  0  0  0  0  0  0  0  0  0  0  0
   -4.0670   18.8660   69.7750 C   0  0  0  0  0  0  0  0  0  0  0  0
   -4.5900   19.2250   68.4820 O   0  0  0  0  0  0  0  0  0  0  0  0
   -6.0300   20.5880   66.6750 F   0  0  0  0  0  0  0  0  0  0  0  0
   -4.6220   19.7790   70.8250 C   0  0  0  0  0  0  0  0  0  0  0  0
   -5.9980   19.9910   70.7980 F   0  0  0  0  0  0  0  0  0  0  0  0
   -4.0340   19.6440   72.1240 O   0  0  0  0  0  0  0  0  0  0  0  0
   -3.7800   20.8650   71.4270 C   0  0  0  0  0  0  0  0  0  0  0  0
   -4.4330   21.9990   71.8740 F   0  0  0  0  0  0  0  0  0  0  0  0
  -11.0910   15.7250   65.9080 O   0  0  0  0  0  0  0  0  0  0  0  0
  -10.7140   14.4250   65.3940 C   0  0  0  0  0  0  0  0  0  0  0  0
  -10.1800   13.6140   66.4330 O   0  0  0  0  0  0  0  0  0  0  0  0
   -9.7670   12.3520   66.0370 C   0  0  0  0  0  0  0  0  0  0  0  0
   -8.7240   11.7630   66.6330 C   0  0  0  0  0  0  0  0  0  0  0  0
  -10.4830   11.5900   64.9680 C   0  0  0  0  0  0  0  0  0  0  0  0
   -7.9800   12.3760   67.6120 O   0  0  0  0  0  0  0  0  0  0  0  0
  -11.6000   12.3640   64.2920 C   0  0  0  0  0  0  0  0  0  0  0  0
  -10.1820   10.4600   64.6270 O   0  0  0  0  0  0  0  0  0  0  0  0
  -11.9280   13.7480   64.7940 C   0  0  0  0  0  0  0  0  0  0  0  0
  -12.1680   11.9290   63.3060 O   0  0  0  0  0  0  0  0  0  0  0  0
  -13.0430   14.2380   64.7020 O   0  0  0  0  0  0  0  0  0  0  0  0
  -12.3880   15.6090   73.6840 C   0  0  0  0  0  0  0  0  0  0  0  0
  -12.0770   16.9260   74.1510 O   0  0  0  0  0  0  0  0  0  0  0  0
  -13.4390   16.4600   74.1740 O   0  0  0  0  0  0  0  0  0  0  0  0
  1 40  1  0  0  0  0
  1  2  2  0  0  0  0
  1  6  1  0  0  0  0
  2  3  1  0  0  0  0
  2 17  1  0  0  0  0
  3  4  1  0  0  0  0
  4  5  2  0  0  0  0
  4 15  1  0  0  0  0
  5  6  1  0  0  0  0
  5  7  1  0  0  0  0
  7  8  1  0  0  0  0
  7 13  1  0  0  0  0
  8  9  1  0  0  0  0
  9 10  2  0  0  0  0
  9 11  1  0  0  0  0
 11 12  1  0  0  0  0
 12 13  1  0  0  0  0
 12 16  1  0  0  0  0
 13 14  2  0  0  0  0
 14 15  1  0  0  0  0
 14 52  1  0  0  0  0
 17 18  2  0  0  0  0
 17 23  1  0  0  0  0
 18 19  1  0  0  0  0
 19 20  1  0  0  0  0
 19 21  2  0  0  0  0
 21 22  1  0  0  0  0
 22 23  2  0  0  0  0
 22 24  1  0  0  0  0
 23 25  1  0  0  0  0
 24 28  2  0  0  0  0
 24 34  1  0  0  0  0
 25 26  2  0  0  0  0
 26 27  1  0  0  0  0
 26 28  1  0  0  0  0
 27 29  2  0  0  0  0
 27 30  1  0  0  0  0
 28 33  1  0  0  0  0
 30 31  2  0  0  0  0
 30 32  1  0  0  0  0
 32 33  1  0  0  0  0
 32 35  1  0  0  0  0
 35 36  1  0  0  0  0
 35 37  1  0  0  0  0
 35 38  1  0  0  0  0
 37 38  1  0  0  0  0
 38 39  1  0  0  0  0
 40 41  1  0  0  0  0
 41 42  1  0  0  0  0
 41 49  1  0  0  0  0
 42 43  1  0  0  0  0
 43 44  2  0  0  0  0
 43 45  1  0  0  0  0
 44 46  1  0  0  0  0
 45 47  1  0  0  0  0
 45 48  2  0  0  0  0
 47 49  1  0  0  0  0
 47 50  2  0  0  0  0
 49 51  2  0  0  0  0
 52 53  1  0  0  0  0
 52 54  1  0  0  0  0
 53 54  1  0  0  0  0
M  CHG  2  15   1  19   1
M  END