
 OpenBabel11232002413D

 54 62  0  0  1  0  0  0  0  0999 V2000
  -10.9660   15.5920   67.3780 C   0  0  0  0  0  0  0  0  0  0  0  0
  -10.4600   16.6340   68.0820 C   0  0  0  0  0  0  0  0  0  0  0  0
  -10.4890   16.6300   69.4870 O   0  0  0  0  0  0  0  0  0  0  0  0
  -11.2490   15.6910   70.1850 C   0  0  0  0  0  0  0  0  0  0  0  0
  -11.7380   14.6100   69.5590 C   0  0  0  0  0  0  0  0  0  0  0  0
  -11.5600   14.3980   68.0900 C   0  0  0  0  0  0  0  0  0  0  0  0
  -12.5410   13.5650   70.2720 C   0  0  0  0  0  0  0  0  0  0  0  0
  -11.8200   12.3500   70.2090 O   0  0  0  0  0  0  0  0  0  0  0  0
  -12.4550   11.2720   70.7440 C   0  0  0  0  0  0  0  0  0  0  0  0
  -12.1530   10.1320   70.4330 O   0  0  0  0  0  0  0  0  0  0  0  0
  -13.4670   11.5690   71.5950 O   0  0  0  0  0  0  0  0  0  0  0  0
  -13.4250   12.7570   72.3810 C   0  0  0  0  0  0  0  0  0  0  0  0
  -12.6940   13.8670   71.7120 C   0  0  0  0  0  0  0  0  0  0  0  0
  -12.2050   14.9900   72.2870 C   0  0  0  0  0  0  0  0  0  0  0  0
  -11.4840   15.9080   71.5270 O   0  0  0  0  0  0  0  0  0  0  0  0
  -14.7440   13.2460   72.5330 O   0  0  0  0  0  0  0  0  0  0  0  0
   -9.8510   17.8770   67.4720 C   0  0  0  0  0  0  0  0  0  0  0  0
  -10.5500   18.5940   66.4960 C   0  0  0  0  0  0  0  0  0  0  0  0
  -10.0470   19.7060   65.9480 N   0  0  0  0  0  0  0  0  0  0  0  0
  -10.7770   20.3720   65.0320 F   0  0  0  0  0  0  0  0  0  0  0  0
   -8.8540   20.1740   66.2520 N   0  0  0  0  0  0  0  0  0  0  0  0
   -8.0920   19.5280   67.1340 C   0  0  0  0  0  0  0  0  0  0  0  0
   -8.5500   18.3660   67.7930 C   0  0  0  0  0  0  0  0  0  0  0  0
   -6.8040   20.0130   67.4040 C   0  0  0  0  0  0  0  0  0  0  0  0
   -7.6630   17.7670   68.7190 C   0  0  0  0  0  0  0  0  0  0  0  0
   -6.3580   18.2270   68.9050 C   0  0  0  0  0  0  0  0  0  0  0  0
   -5.4490   17.4740   69.7670 C   0  0  0  0  0  0  0  0  0  0  0  0
   -5.9230   19.3770   68.2810 C   0  0  0  0  0  0  0  0  0  0  0  0
   -5.7880   16.3870   70.2160 O   0  0  0  0  0  0  0  0  0  0  0  0
   -4.0880   18.0970   69.9800 C   0  0  0  0  0  0  0  0  0  0  0  0
   -3.1220   17.3850   70.2000 O   0  0  0  0  0  0  0  0  0  0  0  0
   -4.0780   19.6030   69.7920 C   0  0  0  0  0  0  0  0  0  0  0  0
   -4.7130   19.9620   68.5400 O   0  0  0  0  0  0  0  0  0  0  0  0
   -6.4080   21.1470   66.8050 F   0  0  0  0  0  0  0  0  0  0  0  0
   -4.6420   20.3430   70.9850 C   0  0  0  0  0  0  0  0  0  0  0  0
   -6.0180   20.7480   70.8960 O   0  0  0  0  0  0  0  0  0  0  0  0
   -4.2150   19.8270   72.2800 O   0  0  0  0  0  0  0  0  0  0  0  0
   -3.8410   21.0570   71.9780 C   0  0  0  0  0  0  0  0  0  0  0  0
   -2.7490   21.5920   71.9330 O   0  0  0  0  0  0  0  0  0  0  0  0
  -10.9520   15.5820   65.9910 O   0  0  0  0  0  0  0  0  0  0  0  0
  -10.5980   14.3550   65.3110 C   0  0  0  0  0  0  0  0  0  0  0  0
  -10.3800   13.3110   66.2520 O   0  0  0  0  0  0  0  0  0  0  0  0
   -9.9540   12.1550   65.6240 C   0  0  0  0  0  0  0  0  0  0  0  0
   -8.8330   11.5320   66.0070 C   0  0  0  0  0  0  0  0  0  0  0  0
  -10.7380   11.6210   64.4740 C   0  0  0  0  0  0  0  0  0  0  0  0
   -8.0030   12.0270   66.9840 O   0  0  0  0  0  0  0  0  0  0  0  0
  -11.8650   12.5480   64.0550 C   0  0  0  0  0  0  0  0  0  0  0  0
  -10.4700   10.5980   63.8730 O   0  0  0  0  0  0  0  0  0  0  0  0
  -11.7530   14.0260   64.3790 C   0  0  0  0  0  0  0  0  0  0  0  0
  -12.8670   12.1180   63.5110 O   0  0  0  0  0  0  0  0  0  0  0  0
  -12.5260   14.8600   63.9270 O   0  0  0  0  0  0  0  0  0  0  0  0
  -12.3630   15.3190   73.7160 C   0  0  0  0  0  0  0  0  0  0  0  0
  -13.3870   16.2510   74.0520 N   0  0  0  0  0  0  0  0  0  0  0  0
  -12.2210   16.6810   74.0820 N   0  0  0  0  0  0  0  0  0  0  0  0
  1 40  1  0  0  0  0
  1  2  2  0  0  0  0
  1  6  1  0  0  0  0
  2  3  1  0  0  0  0
  2 17  1  0  0  0  0
  3  4  1  0  0  0  0
  4  5  2  0  0  0  0
  4 15  1  0  0  0  0
  5  6  1  0  0  0  0
  5  7  1  0  0  0  0
  7  8  1  0  0  0  0
  7 13  1  0  0  0  0
  8  9  1  0  0  0  0
  9 10  2  0  0  0  0
  9 11  1  0  0  0  0
 11 12  1  0  0  0  0
 12 13  1  0  0  0  0
 12 16  1  0  0  0  0
 13 14  2  0  0  0  0
 14 15  1  0  0  0  0
 14 52  1  0  0  0  0
 17 18  2  0  0  0  0
 17 23  1  0  0  0  0
 18 19  1  0  0  0  0
 19 20  1  0  0  0  0
 19 21  2  0  0  0  0
 21 22  1  0  0  0  0
 22 23  2  0  0  0  0
 22 24  1  0  0  0  0
 23 25  1  0  0  0  0
 24 28  2  0  0  0  0
 24 34  1  0  0  0  0
 25 26  2  0  0  0  0
 26 27  1  0  0  0  0
 26 28  1  0  0  0  0
 27 29  2  0  0  0  0
 27 30  1  0  0  0  0
 28 33  1  0  0  0  0
 30 31  2  0  0  0  0
 30 32  1  0  0  0  0
 32 33  1  0  0  0  0
 32 35  1  0  0  0  0
 35 36  1  0  0  0  0
 35 37  1  0  0  0  0
 35 38  1  0  0  0  0
 37 38  1  0  0  0  0
 38 39  2  0  0  0  0
 40 41  1  0  0  0  0
 41 42  1  0  0  0  0
 41 49  1  0  0  0  0
 42 43  1  0  0  0  0
 43 44  2  0  0  0  0
 43 45  1  0  0  0  0
 44 46  1  0  0  0  0
 45 47  1  0  0  0  0
 45 48  2  0  0  0  0
 47 49  1  0  0  0  0
 47 50  2  0  0  0  0
 49 51  2  0  0  0  0
 52 53  1  0  0  0  0
 52 54  1  0  0  0  0
 53 54  2  0  0  0  0
M  CHG  2  15   1  19   1
M  END