
 OpenBabel09232009483D

 51 59  0  0  1  0  0  0  0  0999 V2000
  -10.2790    9.7430   65.0870 O   0  0  0  0  0  0  0  0  0  0  0  0
  -10.5430   10.8720   65.1310 C   0  0  0  0  0  0  0  0  0  0  0  0
  -10.7880   12.1640   65.1900 C   0  0  0  0  0  0  0  0  0  0  0  0
   -9.8750   12.9590   65.8800 O   0  0  0  0  0  0  0  0  0  0  0  0
   -9.7350   14.2930   65.4060 C   0  0  0  0  0  0  0  0  0  0  0  0
  -11.0390   14.9890   64.9900 C   0  0  0  0  0  0  0  0  0  0  0  0
  -11.1330   16.0920   64.4680 O   0  0  0  0  0  0  0  0  0  0  0  0
  -12.2650   14.1300   65.1680 C   0  0  0  0  0  0  0  0  0  0  0  0
  -13.3220   14.5930   65.5560 O   0  0  0  0  0  0  0  0  0  0  0  0
  -12.1270   12.6760   64.8590 C   0  0  0  0  0  0  0  0  0  0  0  0
  -13.0040   12.0100   64.3540 O   0  0  0  0  0  0  0  0  0  0  0  0
   -9.1730   15.1120   66.4340 O   0  0  0  0  0  0  0  0  0  0  0  0
   -9.8240   15.4630   67.5970 C   0  0  0  0  0  0  0  0  0  0  0  0
  -10.0690   16.6860   68.1390 C   0  0  0  0  0  0  0  0  0  0  0  0
  -10.7810   16.8350   69.3340 O   0  0  0  0  0  0  0  0  0  0  0  0
  -11.3530   15.7490   69.9610 C   0  0  0  0  0  0  0  0  0  0  0  0
  -11.1850   14.4540   69.5120 C   0  0  0  0  0  0  0  0  0  0  0  0
  -12.0810   16.0670   71.0560 N   0  0  0  0  0  0  0  0  0  0  0  0
  -10.3330   14.2120   68.3050 C   0  0  0  0  0  0  0  0  0  0  0  0
  -11.8320   13.4390   70.2390 C   0  0  0  0  0  0  0  0  0  0  0  0
  -11.7400   12.0870   69.8650 N   0  0  0  0  0  0  0  0  0  0  0  0
  -12.5970   13.7470   71.3720 C   0  0  0  0  0  0  0  0  0  0  0  0
  -12.4380   11.0670   70.4410 C   0  0  0  0  0  0  0  0  0  0  0  0
  -12.3470    9.9140   70.0350 O   0  0  0  0  0  0  0  0  0  0  0  0
  -13.2720   11.3850   71.4590 N   0  0  0  0  0  0  0  0  0  0  0  0
  -13.2420   12.6420   72.1570 C   0  0  0  0  0  0  0  0  0  0  0  0
  -12.6820   15.0820   71.7790 C   0  0  0  0  0  0  0  0  0  0  0  0
   -9.7200   18.0300   67.5870 C   0  0  0  0  0  0  0  0  0  0  0  0
  -10.7590   18.6450   66.9590 N   0  0  0  0  0  0  0  0  0  0  0  0
  -10.5820   19.9180   66.5410 C   0  0  0  0  0  0  0  0  0  0  0  0
   -9.4080   20.6310   66.7000 C   0  0  0  0  0  0  0  0  0  0  0  0
   -8.3350   20.0160   67.3400 C   0  0  0  0  0  0  0  0  0  0  0  0
   -8.4570   18.6660   67.7650 C   0  0  0  0  0  0  0  0  0  0  0  0
   -7.1430   20.7390   67.5540 C   0  0  0  0  0  0  0  0  0  0  0  0
   -7.2940   18.0550   68.2850 C   0  0  0  0  0  0  0  0  0  0  0  0
   -6.0960   18.7780   68.4330 C   0  0  0  0  0  0  0  0  0  0  0  0
   -6.0350   20.1350   68.1400 C   0  0  0  0  0  0  0  0  0  0  0  0
   -4.8720   18.0920   68.8620 C   0  0  0  0  0  0  0  0  0  0  0  0
   -4.9530   20.9400   68.3660 O   0  0  0  0  0  0  0  0  0  0  0  0
   -3.8940   20.3980   69.1770 C   0  0  0  0  0  0  0  0  0  0  0  0
   -3.6190   18.9390   68.8920 C   0  0  0  0  0  0  0  0  0  0  0  0
   -2.5120   18.4560   68.7110 O   0  0  0  0  0  0  0  0  0  0  0  0
   -4.8650   16.9140   69.1760 O   0  0  0  0  0  0  0  0  0  0  0  0
   -4.1220   20.7120   70.6340 C   0  0  0  0  0  0  0  0  0  0  0  0
   -5.4530   21.1410   70.9930 O   0  0  0  0  0  0  0  0  0  0  0  0
   -3.5310   19.8200   71.5820 O   0  0  0  0  0  0  0  0  0  0  0  0
   -3.0460   21.0760   71.5480 C   0  0  0  0  0  0  0  0  0  0  0  0
   -1.9120   21.4650   71.3740 O   0  0  0  0  0  0  0  0  0  0  0  0
  -13.4470   15.4960   73.0160 C   0  0  0  0  0  0  0  0  0  0  0  0
  -12.8730   15.1990   74.3000 O   0  0  0  0  0  0  0  0  0  0  0  0
  -12.8980   16.5560   73.8150 O   0  0  0  0  0  0  0  0  0  0  0  0
  1  2  2  0  0  0  0
  2  3  2  0  0  0  0
  3  4  1  0  0  0  0
  3 10  1  0  0  0  0
  4  5  1  0  0  0  0
  5 12  1  0  0  0  0
  5  6  1  0  0  0  0
  6  7  2  0  0  0  0
  6  8  1  0  0  0  0
  8  9  2  0  0  0  0
  8 10  1  0  0  0  0
 10 11  2  0  0  0  0
 12 13  1  0  0  0  0
 13 14  2  0  0  0  0
 13 19  1  0  0  0  0
 14 15  1  0  0  0  0
 14 28  1  0  0  0  0
 15 16  1  0  0  0  0
 16 17  2  0  0  0  0
 16 18  1  0  0  0  0
 17 19  1  0  0  0  0
 17 20  1  0  0  0  0
 18 27  2  0  0  0  0
 20 21  1  0  0  0  0
 20 22  2  0  0  0  0
 21 23  1  0  0  0  0
 22 26  1  0  0  0  0
 22 27  1  0  0  0  0
 23 24  2  0  0  0  0
 23 25  1  0  0  0  0
 25 26  1  0  0  0  0
 27 49  1  0  0  0  0
 28 29  2  0  0  0  0
 28 33  1  0  0  0  0
 29 30  1  0  0  0  0
 30 31  2  0  0  0  0
 31 32  1  0  0  0  0
 32 33  2  0  0  0  0
 32 34  1  0  0  0  0
 33 35  1  0  0  0  0
 34 37  2  0  0  0  0
 35 36  2  0  0  0  0
 36 37  1  0  0  0  0
 36 38  1  0  0  0  0
 37 39  1  0  0  0  0
 38 41  1  0  0  0  0
 38 43  2  0  0  0  0
 39 40  1  0  0  0  0
 40 41  1  0  0  0  0
 40 44  1  0  0  0  0
 41 42  2  0  0  0  0
 44 45  1  0  0  0  0
 44 46  1  0  0  0  0
 44 47  1  0  0  0  0
 46 47  1  0  0  0  0
 47 48  2  0  0  0  0
 49 50  1  0  0  0  0
 49 51  1  0  0  0  0
 50 51  1  0  0  0  0
M  END
