
 OpenBabel05082117453D

 51 61  0  0  1  0  0  0  0  0999 V2000
  -10.5970    8.6580   70.1850 C   0  0  0  0  0  0  0  0  0  0  0  0
  -11.1980    9.0840   71.3820 C   0  0  0  0  0  0  0  0  0  0  0  0
  -11.8630   10.3230   71.5080 C   0  0  0  0  0  0  0  0  0  0  0  0
  -11.9730   11.2440   70.4470 C   0  0  0  0  0  0  0  0  0  0  0  0
  -11.4090   10.8420   69.2120 C   0  0  0  0  0  0  0  0  0  0  0  0
  -10.7520    9.5680   69.1120 C   0  0  0  0  0  0  0  0  0  0  0  0
  -10.2400    9.2800   67.7540 C   0  0  0  0  0  0  0  0  0  0  0  0
  -10.4540    8.2030   67.2040 O   0  0  0  0  0  0  0  0  0  0  0  0
   -9.5710   10.4800   67.0580 C   0  0  0  0  0  0  0  0  0  0  0  0
  -10.7730   11.3860   66.8050 C   0  0  0  0  0  0  0  0  0  0  0  0
  -11.4740   11.7350   68.1060 C   0  0  0  0  0  0  0  0  0  0  0  0
  -12.0870   12.9750   68.2120 C   0  0  0  0  0  0  0  0  0  0  0  0
  -12.6400   13.3530   69.4260 C   0  0  0  0  0  0  0  0  0  0  0  0
  -12.5940   12.5360   70.5850 C   0  0  0  0  0  0  0  0  0  0  0  0
  -12.1100   13.9180   67.2220 O   0  0  0  0  0  0  0  0  0  0  0  0
  -11.4680   13.6020   65.9820 C   0  0  0  0  0  0  0  0  0  0  0  0
  -10.2880   12.6420   66.1110 C   0  0  0  0  0  0  0  0  0  0  0  0
   -9.1420   13.2430   66.8910 C   0  0  0  0  0  0  0  0  0  0  0  0
   -8.3470   12.4300   67.7060 C   0  0  0  0  0  0  0  0  0  0  0  0
   -8.5560   11.0830   67.8720 O   0  0  0  0  0  0  0  0  0  0  0  0
   -7.3230   13.0070   68.4510 C   0  0  0  0  0  0  0  0  0  0  0  0
   -7.0730   14.3810   68.3630 C   0  0  0  0  0  0  0  0  0  0  0  0
   -7.8490   15.2040   67.5280 C   0  0  0  0  0  0  0  0  0  0  0  0
   -8.9050   14.6310   66.7960 C   0  0  0  0  0  0  0  0  0  0  0  0
   -9.7040   15.4700   66.0020 C   0  0  0  0  0  0  0  0  0  0  0  0
  -10.9320   14.9150   65.3800 C   0  0  0  0  0  0  0  0  0  0  0  0
  -11.4980   15.4970   64.4560 O   0  0  0  0  0  0  0  0  0  0  0  0
   -9.3970   16.8220   65.8330 C   0  0  0  0  0  0  0  0  0  0  0  0
   -8.3230   17.3880   66.5230 C   0  0  0  0  0  0  0  0  0  0  0  0
   -7.6040   16.5860   67.4150 C   0  0  0  0  0  0  0  0  0  0  0  0
  -12.4290   13.0430   65.0850 O   0  0  0  0  0  0  0  0  0  0  0  0
   -9.0070   10.0720   65.8140 O   0  0  0  0  0  0  0  0  0  0  0  0
   -9.8480    7.3510   70.1400 C   0  0  0  0  0  0  0  0  0  0  0  0
  -10.4570    6.1000   69.8930 C   0  0  0  0  0  0  0  0  0  0  0  0
   -9.7370    4.8990   69.9070 C   0  0  0  0  0  0  0  0  0  0  0  0
  -11.7600    6.0190   69.5810 F   0  0  0  0  0  0  0  0  0  0  0  0
   -8.3700    4.8850   70.1070 C   0  0  0  0  0  0  0  0  0  0  0  0
  -10.3750    3.7380   69.6970 F   0  0  0  0  0  0  0  0  0  0  0  0
   -7.7310    6.0980   70.2840 C   0  0  0  0  0  0  0  0  0  0  0  0
   -6.4000    6.1210   70.4350 F   0  0  0  0  0  0  0  0  0  0  0  0
   -8.4430    7.3050   70.3060 C   0  0  0  0  0  0  0  0  0  0  0  0
  -13.1710   13.0940   71.9940 C   0  0  0  0  0  0  0  0  0  0  0  0
  -14.5240   14.2500   71.8050 C   0  0  0  0  0  0  0  0  0  0  0  0
  -13.4960   14.8190   72.2220 C   0  0  0  0  0  0  0  0  0  0  0  0
  -12.2960   14.5770   72.5050 C   0  0  0  0  0  0  0  0  0  0  0  0
   -8.0350   19.1470   66.3270 S   0  0  0  0  0  0  0  0  0  0  0  0
   -7.9100   19.6830   68.0560 C   0  0  0  0  0  0  0  0  0  0  0  0
   -9.1260   19.3600   68.9070 C   0  0  0  0  0  0  0  0  0  0  0  0
  -10.3750   20.0750   68.4080 C   0  0  0  0  0  0  0  0  0  0  0  0
  -10.7490   19.6540   66.9950 C   0  0  0  0  0  0  0  0  0  0  0  0
   -9.6480   19.8700   65.9690 C   0  0  0  0  0  0  0  0  0  0  0  0
  1 33  1  0  0  0  0
  1  2  2  0  0  0  0
  1  6  1  0  0  0  0
  2  3  1  0  0  0  0
  3  4  2  0  0  0  0
  4  5  1  0  0  0  0
  4 14  1  0  0  0  0
  5  6  2  0  0  0  0
  5 11  1  0  0  0  0
  6  7  1  0  0  0  0
  7  9  1  0  0  0  0
  7  8  2  0  0  0  0
  9 10  1  0  0  0  0
  9 20  1  0  0  0  0
  9 32  1  0  0  0  0
 10 11  1  0  0  0  0
 10 17  1  0  0  0  0
 11 12  2  0  0  0  0
 12 13  1  0  0  0  0
 12 15  1  0  0  0  0
 13 14  2  0  0  0  0
 14 42  1  0  0  0  0
 15 16  1  0  0  0  0
 16 17  1  0  0  0  0
 16 26  1  0  0  0  0
 16 31  1  0  0  0  0
 17 18  1  0  0  0  0
 18 19  2  0  0  0  0
 18 24  1  0  0  0  0
 19 20  1  0  0  0  0
 19 21  1  0  0  0  0
 21 22  2  0  0  0  0
 22 23  1  0  0  0  0
 23 24  2  0  0  0  0
 23 30  1  0  0  0  0
 24 25  1  0  0  0  0
 25 26  1  0  0  0  0
 25 28  2  0  0  0  0
 26 27  2  0  0  0  0
 28 29  1  0  0  0  0
 29 30  2  0  0  0  0
 29 46  1  0  0  0  0
 33 34  1  0  0  0  0
 33 41  2  0  0  0  0
 34 35  2  0  0  0  0
 34 36  1  0  0  0  0
 35 37  1  0  0  0  0
 35 38  1  0  0  0  0
 37 39  2  0  0  0  0
 39 40  1  0  0  0  0
 39 41  1  0  0  0  0
 42 43  1  0  0  0  0
 42 45  1  0  0  0  0
 43 44  2  0  0  0  0
 44 45  2  0  0  0  0
 46 47  1  0  0  0  0
 46 51  1  0  0  0  0
 47 48  1  0  0  0  0
 48 49  1  0  0  0  0
 49 50  1  0  0  0  0
 50 51  1  0  0  0  0
M  CHG  1  46   1
M  END