
 OpenBabel11172006003D

 53 62  0  0  1  0  0  0  0  0999 V2000
  -10.7720   15.7700   66.9800 C   0  0  0  0  0  0  0  0  0  0  0  0
  -10.4370   16.8620   67.7030 C   0  0  0  0  0  0  0  0  0  0  0  0
  -10.7040   16.9950   69.0620 O   0  0  0  0  0  0  0  0  0  0  0  0
  -11.3710   15.9750   69.7240 C   0  0  0  0  0  0  0  0  0  0  0  0
  -11.7580   14.8540   69.0990 C   0  0  0  0  0  0  0  0  0  0  0  0
  -11.5020   14.6320   67.6480 C   0  0  0  0  0  0  0  0  0  0  0  0
  -12.4910   13.7690   69.8400 C   0  0  0  0  0  0  0  0  0  0  0  0
  -11.7390   12.5570   69.6990 O   0  0  0  0  0  0  0  0  0  0  0  0
  -12.1630   11.4160   70.3060 C   0  0  0  0  0  0  0  0  0  0  0  0
  -11.8020   10.3150   69.9090 O   0  0  0  0  0  0  0  0  0  0  0  0
  -13.0000   11.5600   71.3730 O   0  0  0  0  0  0  0  0  0  0  0  0
  -13.3090   12.8590   71.9100 C   0  0  0  0  0  0  0  0  0  0  0  0
  -12.6780   14.0330   71.3040 C   0  0  0  0  0  0  0  0  0  0  0  0
  -12.2390   15.1830   71.8680 C   0  0  0  0  0  0  0  0  0  0  0  0
  -11.6240   16.1340   71.0610 N   0  0  0  0  0  0  0  0  0  0  0  0
  -13.7500   12.8330   73.2770 O   0  0  0  0  0  0  0  0  0  0  0  0
  -14.7750   12.9980   72.2980 C   0  0  0  0  0  0  0  0  0  0  0  0
   -9.7370   18.0150   67.1200 C   0  0  0  0  0  0  0  0  0  0  0  0
  -10.3920   18.7560   66.1500 C   0  0  0  0  0  0  0  0  0  0  0  0
   -9.8530   19.8450   65.5770 N   0  0  0  0  0  0  0  0  0  0  0  0
   -8.6130   20.2580   65.9670 N   0  0  0  0  0  0  0  0  0  0  0  0
   -7.9230   19.5880   66.9030 C   0  0  0  0  0  0  0  0  0  0  0  0
   -8.4440   18.4270   67.5100 C   0  0  0  0  0  0  0  0  0  0  0  0
   -6.6710   20.0580   67.2860 C   0  0  0  0  0  0  0  0  0  0  0  0
   -7.6490   17.7460   68.4630 C   0  0  0  0  0  0  0  0  0  0  0  0
   -6.3880   18.2340   68.8190 C   0  0  0  0  0  0  0  0  0  0  0  0
   -5.9080   19.4080   68.2570 C   0  0  0  0  0  0  0  0  0  0  0  0
   -5.5500   17.4940   69.7720 C   0  0  0  0  0  0  0  0  0  0  0  0
   -4.7150   19.9960   68.5770 O   0  0  0  0  0  0  0  0  0  0  0  0
   -4.1100   19.5790   69.8070 C   0  0  0  0  0  0  0  0  0  0  0  0
   -4.1980   18.0970   70.0770 C   0  0  0  0  0  0  0  0  0  0  0  0
   -3.2860   17.4180   70.5270 O   0  0  0  0  0  0  0  0  0  0  0  0
   -5.9040   16.4390   70.2740 O   0  0  0  0  0  0  0  0  0  0  0  0
   -4.6470   20.3680   70.9590 C   0  0  0  0  0  0  0  0  0  0  0  0
   -6.0850   20.5320   71.0200 O   0  0  0  0  0  0  0  0  0  0  0  0
   -4.0050   20.0970   72.2080 O   0  0  0  0  0  0  0  0  0  0  0  0
   -3.8680   21.3450   71.7170 C   0  0  0  0  0  0  0  0  0  0  0  0
   -4.1980   22.4040   72.1960 O   0  0  0  0  0  0  0  0  0  0  0  0
  -10.5280   15.7070   65.6090 O   0  0  0  0  0  0  0  0  0  0  0  0
  -10.4350   14.4020   65.0230 C   0  0  0  0  0  0  0  0  0  0  0  0
  -10.1000   13.4020   65.9920 O   0  0  0  0  0  0  0  0  0  0  0  0
   -9.7800   12.1740   65.4490 C   0  0  0  0  0  0  0  0  0  0  0  0
   -8.7920   11.4340   65.9650 C   0  0  0  0  0  0  0  0  0  0  0  0
  -10.5800   11.6290   64.3170 C   0  0  0  0  0  0  0  0  0  0  0  0
   -8.0230   11.8560   67.0210 O   0  0  0  0  0  0  0  0  0  0  0  0
  -11.6740   12.5700   63.8390 C   0  0  0  0  0  0  0  0  0  0  0  0
  -10.3750   10.5470   63.7930 O   0  0  0  0  0  0  0  0  0  0  0  0
  -11.7660   13.9540   64.4410 C   0  0  0  0  0  0  0  0  0  0  0  0
  -12.4420   12.2320   62.9520 O   0  0  0  0  0  0  0  0  0  0  0  0
  -12.8180   14.5750   64.4500 O   0  0  0  0  0  0  0  0  0  0  0  0
  -12.3450   15.5250   73.3090 C   0  0  0  0  0  0  0  0  0  0  0  0
  -12.1700   16.8740   73.7830 O   0  0  0  0  0  0  0  0  0  0  0  0
  -13.4690   16.2520   73.8280 O   0  0  0  0  0  0  0  0  0  0  0  0
  1 39  1  0  0  0  0
  1  2  2  0  0  0  0
  1  6  1  0  0  0  0
  2  3  1  0  0  0  0
  2 18  1  0  0  0  0
  3  4  1  0  0  0  0
  4  5  2  0  0  0  0
  4 15  1  0  0  0  0
  5  6  1  0  0  0  0
  5  7  1  0  0  0  0
  7  8  1  0  0  0  0
  7 13  1  0  0  0  0
  8  9  1  0  0  0  0
  9 10  2  0  0  0  0
  9 11  1  0  0  0  0
 11 12  1  0  0  0  0
 12 13  1  0  0  0  0
 12 16  1  0  0  0  0
 12 17  1  0  0  0  0
 13 14  2  0  0  0  0
 14 15  1  0  0  0  0
 14 51  1  0  0  0  0
 16 17  1  0  0  0  0
 18 19  2  0  0  0  0
 18 23  1  0  0  0  0
 19 20  1  0  0  0  0
 20 21  2  0  0  0  0
 21 22  1  0  0  0  0
 22 23  2  0  0  0  0
 22 24  1  0  0  0  0
 23 25  1  0  0  0  0
 24 27  2  0  0  0  0
 25 26  2  0  0  0  0
 26 27  1  0  0  0  0
 26 28  1  0  0  0  0
 27 29  1  0  0  0  0
 28 31  1  0  0  0  0
 28 33  2  0  0  0  0
 29 30  1  0  0  0  0
 30 31  1  0  0  0  0
 30 34  1  0  0  0  0
 31 32  2  0  0  0  0
 34 35  1  0  0  0  0
 34 36  1  0  0  0  0
 34 37  1  0  0  0  0
 36 37  1  0  0  0  0
 37 38  2  0  0  0  0
 39 40  1  0  0  0  0
 40 41  1  0  0  0  0
 40 48  1  0  0  0  0
 41 42  1  0  0  0  0
 42 43  2  0  0  0  0
 42 44  1  0  0  0  0
 43 45  1  0  0  0  0
 44 46  1  0  0  0  0
 44 47  2  0  0  0  0
 46 48  1  0  0  0  0
 46 49  2  0  0  0  0
 48 50  2  0  0  0  0
 51 52  1  0  0  0  0
 51 53  1  0  0  0  0
 52 53  1  0  0  0  0
M  END
