
 OpenBabel11152013473D

 54 62  0  0  1  0  0  0  0  0999 V2000
  -11.0560   15.9870   67.4590 C   0  0  0  0  0  0  0  0  0  0  0  0
  -10.5990   17.0400   68.1780 C   0  0  0  0  0  0  0  0  0  0  0  0
  -10.7560   17.1250   69.5720 O   0  0  0  0  0  0  0  0  0  0  0  0
  -11.4010   16.1000   70.2720 C   0  0  0  0  0  0  0  0  0  0  0  0
  -11.8760   15.0200   69.6420 C   0  0  0  0  0  0  0  0  0  0  0  0
  -11.7640   14.8640   68.1710 C   0  0  0  0  0  0  0  0  0  0  0  0
  -12.6230   13.9340   70.3440 C   0  0  0  0  0  0  0  0  0  0  0  0
  -11.9130   12.7200   70.1310 O   0  0  0  0  0  0  0  0  0  0  0  0
  -12.3790   11.5930   70.7150 C   0  0  0  0  0  0  0  0  0  0  0  0
  -12.0730   10.4840   70.3000 O   0  0  0  0  0  0  0  0  0  0  0  0
  -13.1870   11.7540   71.7900 O   0  0  0  0  0  0  0  0  0  0  0  0
  -13.4450   13.0110   72.4150 C   0  0  0  0  0  0  0  0  0  0  0  0
  -12.7140   14.1430   71.7980 C   0  0  0  0  0  0  0  0  0  0  0  0
  -12.1880   15.2310   72.4050 C   0  0  0  0  0  0  0  0  0  0  0  0
  -11.5490   16.2350   71.6510 O   0  0  0  0  0  0  0  0  0  0  0  0
  -14.8310   13.2880   72.2690 O   0  0  0  0  0  0  0  0  0  0  0  0
   -9.9730   18.2470   67.5790 C   0  0  0  0  0  0  0  0  0  0  0  0
  -10.8550   19.0830   66.9920 N   0  0  0  0  0  0  0  0  0  0  0  0
  -10.4400   20.2080   66.4770 N   0  0  0  0  0  0  0  0  0  0  0  0
   -9.1840   20.5790   66.5290 N   0  0  0  0  0  0  0  0  0  0  0  0
   -8.2640   19.8050   67.1210 C   0  0  0  0  0  0  0  0  0  0  0  0
   -8.6130   18.5700   67.6790 C   0  0  0  0  0  0  0  0  0  0  0  0
   -6.9260   20.2290   67.2130 C   0  0  0  0  0  0  0  0  0  0  0  0
   -7.6060   17.7820   68.2990 C   0  0  0  0  0  0  0  0  0  0  0  0
   -6.3040   18.2740   68.4290 C   0  0  0  0  0  0  0  0  0  0  0  0
   -5.2860   17.5260   69.1610 C   0  0  0  0  0  0  0  0  0  0  0  0
   -5.9520   19.4970   67.8950 C   0  0  0  0  0  0  0  0  0  0  0  0
   -5.3310   16.3170   69.3010 O   0  0  0  0  0  0  0  0  0  0  0  0
   -4.2090   18.3660   69.7990 C   0  0  0  0  0  0  0  0  0  0  0  0
   -3.7130   18.0380   70.8680 O   0  0  0  0  0  0  0  0  0  0  0  0
   -3.8560   19.6300   69.0390 C   0  0  0  0  0  0  0  0  0  0  0  0
   -4.6870   20.0110   67.9330 O   0  0  0  0  0  0  0  0  0  0  0  0
   -6.5530   21.4230   66.6290 O   0  0  0  0  0  0  0  0  0  0  0  0
   -3.6800   20.8320   69.9260 C   0  0  0  0  0  0  0  0  0  0  0  0
   -2.4160   21.5300   69.7800 O   0  0  0  0  0  0  0  0  0  0  0  0
   -4.8280   21.6670   70.0520 O   0  0  0  0  0  0  0  0  0  0  0  0
   -4.3860   21.0770   71.1900 C   0  0  0  0  0  0  0  0  0  0  0  0
   -3.9810   21.5910   72.2070 O   0  0  0  0  0  0  0  0  0  0  0  0
  -10.9440   15.9380   66.0680 O   0  0  0  0  0  0  0  0  0  0  0  0
  -10.5740   14.6890   65.4480 C   0  0  0  0  0  0  0  0  0  0  0  0
  -10.4600   13.6090   66.3780 O   0  0  0  0  0  0  0  0  0  0  0  0
   -9.8290   12.5140   65.8310 C   0  0  0  0  0  0  0  0  0  0  0  0
   -8.8870   11.8340   66.4970 C   0  0  0  0  0  0  0  0  0  0  0  0
  -10.2570   12.0630   64.4760 C   0  0  0  0  0  0  0  0  0  0  0  0
   -8.4240   12.1990   67.7370 O   0  0  0  0  0  0  0  0  0  0  0  0
  -11.4000   12.8210   63.8530 C   0  0  0  0  0  0  0  0  0  0  0  0
   -9.7220   11.1130   63.9070 O   0  0  0  0  0  0  0  0  0  0  0  0
  -11.6200   14.2100   64.4280 C   0  0  0  0  0  0  0  0  0  0  0  0
  -12.5410   14.9190   64.0180 O   0  0  0  0  0  0  0  0  0  0  0  0
  -12.6450   11.9770   64.0080 C   0  0  0  0  0  0  0  0  0  0  0  0
  -13.0570   11.5590   62.7790 F   0  0  0  0  0  0  0  0  0  0  0  0
  -12.2530   15.4860   73.8600 C   0  0  0  0  0  0  0  0  0  0  0  0
  -12.1850   16.8120   74.4110 O   0  0  0  0  0  0  0  0  0  0  0  0
  -13.4170   16.0690   74.4710 O   0  0  0  0  0  0  0  0  0  0  0  0
  1 39  1  0  0  0  0
  1  2  2  0  0  0  0
  1  6  1  0  0  0  0
  2  3  1  0  0  0  0
  2 17  1  0  0  0  0
  3  4  1  0  0  0  0
  4  5  2  0  0  0  0
  4 15  1  0  0  0  0
  5  6  1  0  0  0  0
  5  7  1  0  0  0  0
  7  8  1  0  0  0  0
  7 13  1  0  0  0  0
  8  9  1  0  0  0  0
  9 10  2  0  0  0  0
  9 11  1  0  0  0  0
 11 12  1  0  0  0  0
 12 13  1  0  0  0  0
 12 16  1  0  0  0  0
 13 14  2  0  0  0  0
 14 15  1  0  0  0  0
 14 52  1  0  0  0  0
 17 18  2  0  0  0  0
 17 22  1  0  0  0  0
 18 19  1  0  0  0  0
 19 20  2  0  0  0  0
 20 21  1  0  0  0  0
 21 22  2  0  0  0  0
 21 23  1  0  0  0  0
 22 24  1  0  0  0  0
 23 27  2  0  0  0  0
 23 33  1  0  0  0  0
 24 25  2  0  0  0  0
 25 26  1  0  0  0  0
 25 27  1  0  0  0  0
 26 28  2  0  0  0  0
 26 29  1  0  0  0  0
 27 32  1  0  0  0  0
 29 30  2  0  0  0  0
 29 31  1  0  0  0  0
 31 32  1  0  0  0  0
 31 34  1  0  0  0  0
 34 35  1  0  0  0  0
 34 36  1  0  0  0  0
 34 37  1  0  0  0  0
 36 37  1  0  0  0  0
 37 38  2  0  0  0  0
 39 40  1  0  0  0  0
 40 41  1  0  0  0  0
 40 48  1  0  0  0  0
 41 42  1  0  0  0  0
 42 43  2  0  0  0  0
 42 44  1  0  0  0  0
 43 45  1  0  0  0  0
 44 46  1  0  0  0  0
 44 47  2  0  0  0  0
 46 48  1  0  0  0  0
 46 50  1  0  0  0  0
 48 49  2  0  0  0  0
 50 51  1  0  0  0  0
 52 53  1  0  0  0  0
 52 54  1  0  0  0  0
 53 54  1  0  0  0  0
M  END
