
 OpenBabel11212022233D

 54 62  0  0  1  0  0  0  0  0999 V2000
   -7.3440   11.2040   66.3870 N   0  0  0  0  0  0  0  0  0  0  0  0
   -8.4000   11.4990   66.4170 N   0  0  0  0  0  0  0  0  0  0  0  0
   -9.7760   11.9450   66.4360 C   0  0  0  0  0  0  0  0  0  0  0  0
  -10.0100   13.3560   66.6490 O   0  0  0  0  0  0  0  0  0  0  0  0
  -10.5350   14.1740   65.5900 C   0  0  0  0  0  0  0  0  0  0  0  0
  -11.5160   13.4430   64.6640 C   0  0  0  0  0  0  0  0  0  0  0  0
  -12.6720   13.7260   64.4080 O   0  0  0  0  0  0  0  0  0  0  0  0
  -10.8830   12.1890   64.1900 C   0  0  0  0  0  0  0  0  0  0  0  0
  -10.5400   12.0980   63.0300 O   0  0  0  0  0  0  0  0  0  0  0  0
  -10.3400   11.2540   65.2270 C   0  0  0  0  0  0  0  0  0  0  0  0
  -10.2790   10.0530   65.0580 O   0  0  0  0  0  0  0  0  0  0  0  0
  -10.9700   15.4500   66.1000 O   0  0  0  0  0  0  0  0  0  0  0  0
  -11.1430   15.6330   67.4660 C   0  0  0  0  0  0  0  0  0  0  0  0
  -10.6070   16.6960   68.1130 C   0  0  0  0  0  0  0  0  0  0  0  0
  -10.8790   16.9730   69.4640 O   0  0  0  0  0  0  0  0  0  0  0  0
  -11.6760   16.0960   70.2140 C   0  0  0  0  0  0  0  0  0  0  0  0
  -12.1310   14.9520   69.6760 C   0  0  0  0  0  0  0  0  0  0  0  0
  -11.9750   16.4300   71.5220 O   0  0  0  0  0  0  0  0  0  0  0  0
  -11.9080   14.5880   68.2460 C   0  0  0  0  0  0  0  0  0  0  0  0
  -12.9280   13.9530   70.4650 C   0  0  0  0  0  0  0  0  0  0  0  0
  -12.1340   12.7850   70.5290 O   0  0  0  0  0  0  0  0  0  0  0  0
  -13.1840   14.4030   71.8460 C   0  0  0  0  0  0  0  0  0  0  0  0
  -12.5320   11.7590   71.3260 C   0  0  0  0  0  0  0  0  0  0  0  0
  -12.0370   10.6510   71.1990 O   0  0  0  0  0  0  0  0  0  0  0  0
  -13.4940   12.0370   72.2350 O   0  0  0  0  0  0  0  0  0  0  0  0
  -13.9620   13.3470   72.5470 C   0  0  0  0  0  0  0  0  0  0  0  0
  -15.2870   13.4830   72.0720 O   0  0  0  0  0  0  0  0  0  0  0  0
  -12.7490   15.5910   72.3220 C   0  0  0  0  0  0  0  0  0  0  0  0
   -9.6830   17.6790   67.4760 C   0  0  0  0  0  0  0  0  0  0  0  0
  -10.2110   18.6590   66.6360 C   0  0  0  0  0  0  0  0  0  0  0  0
   -9.4210   19.5910   66.0840 N   0  0  0  0  0  0  0  0  0  0  0  0
   -9.9700   20.5460   65.3070 F   0  0  0  0  0  0  0  0  0  0  0  0
   -8.1210   19.6300   66.2880 N   0  0  0  0  0  0  0  0  0  0  0  0
   -7.5460   18.7440   67.1010 C   0  0  0  0  0  0  0  0  0  0  0  0
   -8.2850   17.7240   67.7350 C   0  0  0  0  0  0  0  0  0  0  0  0
   -6.1790   18.8700   67.3610 C   0  0  0  0  0  0  0  0  0  0  0  0
   -7.5830   16.8540   68.6110 C   0  0  0  0  0  0  0  0  0  0  0  0
   -6.2180   17.0510   68.8980 C   0  0  0  0  0  0  0  0  0  0  0  0
   -5.5420   16.2320   69.9120 C   0  0  0  0  0  0  0  0  0  0  0  0
   -5.5100   18.0630   68.2790 C   0  0  0  0  0  0  0  0  0  0  0  0
   -6.1370   15.2950   70.4240 O   0  0  0  0  0  0  0  0  0  0  0  0
   -4.1350   16.6350   70.3130 C   0  0  0  0  0  0  0  0  0  0  0  0
   -3.4560   15.9030   71.0150 O   0  0  0  0  0  0  0  0  0  0  0  0
   -3.7210   18.0150   69.8460 C   0  0  0  0  0  0  0  0  0  0  0  0
   -4.1950   18.3380   68.5270 O   0  0  0  0  0  0  0  0  0  0  0  0
   -5.4990   19.8550   66.7550 F   0  0  0  0  0  0  0  0  0  0  0  0
   -4.1550   19.0650   70.8200 C   0  0  0  0  0  0  0  0  0  0  0  0
   -5.1220   18.6620   71.8330 O   0  0  0  0  0  0  0  0  0  0  0  0
   -3.1540   19.9750   71.2410 O   0  0  0  0  0  0  0  0  0  0  0  0
   -4.1600   20.5020   70.5140 C   0  0  0  0  0  0  0  0  0  0  0  0
   -5.0180   21.3000   70.8400 O   0  0  0  0  0  0  0  0  0  0  0  0
  -13.0190   16.0820   73.6930 C   0  0  0  0  0  0  0  0  0  0  0  0
  -12.2770   15.5940   74.8130 O   0  0  0  0  0  0  0  0  0  0  0  0
  -12.0690   16.9420   74.3480 O   0  0  0  0  0  0  0  0  0  0  0  0
  1  2  3  0  0  0  0
  2  3  1  0  0  0  0
  3  4  1  0  0  0  0
  3 10  1  0  0  0  0
  4  5  1  0  0  0  0
  5 12  1  0  0  0  0
  5  6  1  0  0  0  0
  6  7  2  0  0  0  0
  6  8  1  0  0  0  0
  8  9  2  0  0  0  0
  8 10  1  0  0  0  0
 10 11  2  0  0  0  0
 12 13  1  0  0  0  0
 13 14  2  0  0  0  0
 13 19  1  0  0  0  0
 14 15  1  0  0  0  0
 14 29  1  0  0  0  0
 15 16  1  0  0  0  0
 16 17  2  0  0  0  0
 16 18  1  0  0  0  0
 17 19  1  0  0  0  0
 17 20  1  0  0  0  0
 18 28  1  0  0  0  0
 20 21  1  0  0  0  0
 20 22  1  0  0  0  0
 21 23  1  0  0  0  0
 22 26  1  0  0  0  0
 22 28  2  0  0  0  0
 23 24  2  0  0  0  0
 23 25  1  0  0  0  0
 25 26  1  0  0  0  0
 26 27  1  0  0  0  0
 28 52  1  0  0  0  0
 29 30  2  0  0  0  0
 29 35  1  0  0  0  0
 30 31  1  0  0  0  0
 31 32  1  0  0  0  0
 31 33  2  0  0  0  0
 33 34  1  0  0  0  0
 34 35  2  0  0  0  0
 34 36  1  0  0  0  0
 35 37  1  0  0  0  0
 36 40  2  0  0  0  0
 36 46  1  0  0  0  0
 37 38  2  0  0  0  0
 38 39  1  0  0  0  0
 38 40  1  0  0  0  0
 39 41  2  0  0  0  0
 39 42  1  0  0  0  0
 40 45  1  0  0  0  0
 42 43  2  0  0  0  0
 42 44  1  0  0  0  0
 44 45  1  0  0  0  0
 44 47  1  0  0  0  0
 47 48  1  0  0  0  0
 47 49  1  0  0  0  0
 47 50  1  0  0  0  0
 49 50  1  0  0  0  0
 50 51  2  0  0  0  0
 52 53  1  0  0  0  0
 52 54  1  0  0  0  0
 53 54  1  0  0  0  0
M  CHG  3   2   1  18   1  31   1
M  END