
 OpenBabel11212021133D

 53 61  0  0  1  0  0  0  0  0999 V2000
  -10.6020   15.6330   67.3470 C   0  0  0  0  0  0  0  0  0  0  0  0
  -10.5800   16.8350   67.9910 C   0  0  0  0  0  0  0  0  0  0  0  0
  -11.1420   17.0000   69.2670 O   0  0  0  0  0  0  0  0  0  0  0  0
  -11.6570   15.9040   69.9530 C   0  0  0  0  0  0  0  0  0  0  0  0
  -11.6890   14.6920   69.3900 C   0  0  0  0  0  0  0  0  0  0  0  0
  -11.2290   14.4320   68.0160 C   0  0  0  0  0  0  0  0  0  0  0  0
  -12.1730   13.5320   70.1810 C   0  0  0  0  0  0  0  0  0  0  0  0
  -12.1230   12.3350   69.6870 N   0  0  0  0  0  0  0  0  0  0  0  0
  -12.5710   11.3260   70.4880 C   0  0  0  0  0  0  0  0  0  0  0  0
  -12.4290   10.1520   69.9960 N   0  0  0  0  0  0  0  0  0  0  0  0
  -13.1250   11.4320   71.7270 N   0  0  0  0  0  0  0  0  0  0  0  0
  -13.1850   12.6160   72.2390 C   0  0  0  0  0  0  0  0  0  0  0  0
  -12.6860   13.8100   71.5410 C   0  0  0  0  0  0  0  0  0  0  0  0
  -12.6520   15.0730   72.0150 C   0  0  0  0  0  0  0  0  0  0  0  0
  -12.1080   16.0940   71.2360 N   0  0  0  0  0  0  0  0  0  0  0  0
   -9.8610   18.0510   67.4890 C   0  0  0  0  0  0  0  0  0  0  0  0
  -10.5660   18.7240   66.5520 N   0  0  0  0  0  0  0  0  0  0  0  0
  -10.0480   19.7870   65.9720 N   0  0  0  0  0  0  0  0  0  0  0  0
  -10.7750   20.4250   65.0360 F   0  0  0  0  0  0  0  0  0  0  0  0
   -8.8260   20.2370   66.2610 C   0  0  0  0  0  0  0  0  0  0  0  0
   -8.0340   19.5900   67.1970 C   0  0  0  0  0  0  0  0  0  0  0  0
   -8.5350   18.4470   67.8510 C   0  0  0  0  0  0  0  0  0  0  0  0
   -6.7470   20.0880   67.4700 C   0  0  0  0  0  0  0  0  0  0  0  0
   -7.6440   17.8340   68.7850 C   0  0  0  0  0  0  0  0  0  0  0  0
   -6.3440   18.3400   69.0280 C   0  0  0  0  0  0  0  0  0  0  0  0
   -5.4380   17.6610   69.9610 C   0  0  0  0  0  0  0  0  0  0  0  0
   -5.8920   19.4820   68.3850 C   0  0  0  0  0  0  0  0  0  0  0  0
   -5.7970   16.7100   70.6320 O   0  0  0  0  0  0  0  0  0  0  0  0
   -4.0230   18.1880   70.0070 C   0  0  0  0  0  0  0  0  0  0  0  0
   -3.0800   17.4290   70.1640 O   0  0  0  0  0  0  0  0  0  0  0  0
   -3.9190   19.6720   69.7560 C   0  0  0  0  0  0  0  0  0  0  0  0
   -4.6830   20.0820   68.6030 O   0  0  0  0  0  0  0  0  0  0  0  0
   -6.3380   21.1940   66.8290 F   0  0  0  0  0  0  0  0  0  0  0  0
   -4.2310   20.4780   70.9940 C   0  0  0  0  0  0  0  0  0  0  0  0
   -5.5610   21.0230   71.0790 O   0  0  0  0  0  0  0  0  0  0  0  0
   -3.7270   19.9500   72.2330 O   0  0  0  0  0  0  0  0  0  0  0  0
   -3.2090   21.1190   71.8100 C   0  0  0  0  0  0  0  0  0  0  0  0
   -2.0710   21.4450   71.5760 O   0  0  0  0  0  0  0  0  0  0  0  0
  -10.0360   15.4430   66.0810 O   0  0  0  0  0  0  0  0  0  0  0  0
   -9.8900   14.0830   65.6140 C   0  0  0  0  0  0  0  0  0  0  0  0
   -9.7080   13.1640   66.6940 O   0  0  0  0  0  0  0  0  0  0  0  0
   -9.4280   11.8600   66.3180 C   0  0  0  0  0  0  0  0  0  0  0  0
   -8.5840   11.0990   67.0290 C   0  0  0  0  0  0  0  0  0  0  0  0
  -10.0990   11.2410   65.1370 C   0  0  0  0  0  0  0  0  0  0  0  0
   -7.9030   11.5580   68.1270 O   0  0  0  0  0  0  0  0  0  0  0  0
  -10.8890   12.2280   64.2960 C   0  0  0  0  0  0  0  0  0  0  0  0
  -10.0080   10.0650   64.8350 O   0  0  0  0  0  0  0  0  0  0  0  0
  -11.1010   13.6240   64.8270 C   0  0  0  0  0  0  0  0  0  0  0  0
  -11.2280   11.9610   63.1550 O   0  0  0  0  0  0  0  0  0  0  0  0
  -12.1030   14.2770   64.5830 O   0  0  0  0  0  0  0  0  0  0  0  0
  -13.1560   15.4760   73.3450 C   0  0  0  0  0  0  0  0  0  0  0  0
  -12.3670   15.2820   74.5290 O   0  0  0  0  0  0  0  0  0  0  0  0
  -12.6350   16.6120   74.0510 O   0  0  0  0  0  0  0  0  0  0  0  0
  1 39  1  0  0  0  0
  1  2  2  0  0  0  0
  1  6  1  0  0  0  0
  2  3  1  0  0  0  0
  2 16  1  0  0  0  0
  3  4  1  0  0  0  0
  4  5  2  0  0  0  0
  4 15  1  0  0  0  0
  5  6  1  0  0  0  0
  5  7  1  0  0  0  0
  7  8  2  0  0  0  0
  7 13  1  0  0  0  0
  8  9  1  0  0  0  0
  9 10  2  0  0  0  0
  9 11  1  0  0  0  0
 11 12  2  0  0  0  0
 12 13  1  0  0  0  0
 13 14  2  0  0  0  0
 14 15  1  0  0  0  0
 14 51  1  0  0  0  0
 16 17  2  0  0  0  0
 16 22  1  0  0  0  0
 17 18  1  0  0  0  0
 18 19  1  0  0  0  0
 18 20  2  0  0  0  0
 20 21  1  0  0  0  0
 21 22  2  0  0  0  0
 21 23  1  0  0  0  0
 22 24  1  0  0  0  0
 23 27  2  0  0  0  0
 23 33  1  0  0  0  0
 24 25  2  0  0  0  0
 25 26  1  0  0  0  0
 25 27  1  0  0  0  0
 26 28  2  0  0  0  0
 26 29  1  0  0  0  0
 27 32  1  0  0  0  0
 29 30  2  0  0  0  0
 29 31  1  0  0  0  0
 31 32  1  0  0  0  0
 31 34  1  0  0  0  0
 34 35  1  0  0  0  0
 34 36  1  0  0  0  0
 34 37  1  0  0  0  0
 36 37  1  0  0  0  0
 37 38  2  0  0  0  0
 39 40  1  0  0  0  0
 40 41  1  0  0  0  0
 40 48  1  0  0  0  0
 41 42  1  0  0  0  0
 42 43  2  0  0  0  0
 42 44  1  0  0  0  0
 43 45  1  0  0  0  0
 44 46  1  0  0  0  0
 44 47  2  0  0  0  0
 46 48  1  0  0  0  0
 46 49  2  0  0  0  0
 48 50  2  0  0  0  0
 51 52  1  0  0  0  0
 51 53  1  0  0  0  0
 52 53  1  0  0  0  0
M  CHG  1  18   1
M  END