
 OpenBabel11222021503D

 54 62  0  0  1  0  0  0  0  0999 V2000
  -10.8050   15.6790   67.2450 C   0  0  0  0  0  0  0  0  0  0  0  0
  -10.4690   16.7850   67.9430 C   0  0  0  0  0  0  0  0  0  0  0  0
  -10.6350   16.8900   69.3270 O   0  0  0  0  0  0  0  0  0  0  0  0
  -11.2680   15.8590   70.0300 C   0  0  0  0  0  0  0  0  0  0  0  0
  -11.6790   14.7390   69.4060 C   0  0  0  0  0  0  0  0  0  0  0  0
  -11.4360   14.5000   67.9480 C   0  0  0  0  0  0  0  0  0  0  0  0
  -12.4630   13.6690   70.1180 C   0  0  0  0  0  0  0  0  0  0  0  0
  -11.7640   12.4420   70.0380 O   0  0  0  0  0  0  0  0  0  0  0  0
  -12.4530   11.3740   70.5370 C   0  0  0  0  0  0  0  0  0  0  0  0
  -12.1990   10.2270   70.2100 O   0  0  0  0  0  0  0  0  0  0  0  0
  -13.4630   11.6990   71.3840 O   0  0  0  0  0  0  0  0  0  0  0  0
  -13.3130   12.8300   72.2350 C   0  0  0  0  0  0  0  0  0  0  0  0
  -12.5920   13.9490   71.5650 C   0  0  0  0  0  0  0  0  0  0  0  0
  -12.0980   15.0650   72.1480 C   0  0  0  0  0  0  0  0  0  0  0  0
  -11.4670   16.0330   71.3820 O   0  0  0  0  0  0  0  0  0  0  0  0
  -14.5930   13.3510   72.5270 O   0  0  0  0  0  0  0  0  0  0  0  0
   -9.8800   17.9840   67.3020 C   0  0  0  0  0  0  0  0  0  0  0  0
  -10.6330   18.6950   66.3710 C   0  0  0  0  0  0  0  0  0  0  0  0
  -10.1220   19.7680   65.7550 N   0  0  0  0  0  0  0  0  0  0  0  0
  -10.8840   20.4440   64.8720 F   0  0  0  0  0  0  0  0  0  0  0  0
   -8.8950   20.2000   65.9790 N   0  0  0  0  0  0  0  0  0  0  0  0
   -8.1070   19.5480   66.8390 C   0  0  0  0  0  0  0  0  0  0  0  0
   -8.5620   18.4210   67.5490 C   0  0  0  0  0  0  0  0  0  0  0  0
   -6.7920   19.9810   67.0370 C   0  0  0  0  0  0  0  0  0  0  0  0
   -7.6740   17.7920   68.4520 C   0  0  0  0  0  0  0  0  0  0  0  0
   -6.3610   18.2560   68.6210 C   0  0  0  0  0  0  0  0  0  0  0  0
   -5.4680   17.5720   69.5530 C   0  0  0  0  0  0  0  0  0  0  0  0
   -5.9040   19.3490   67.9130 C   0  0  0  0  0  0  0  0  0  0  0  0
   -5.8780   16.6360   70.2220 O   0  0  0  0  0  0  0  0  0  0  0  0
   -4.0460   18.0670   69.6430 C   0  0  0  0  0  0  0  0  0  0  0  0
   -3.1890   17.3660   70.1570 O   0  0  0  0  0  0  0  0  0  0  0  0
   -3.8220   19.4670   69.1190 C   0  0  0  0  0  0  0  0  0  0  0  0
   -4.6450   19.8630   68.0090 O   0  0  0  0  0  0  0  0  0  0  0  0
   -6.3680   21.0570   66.3560 F   0  0  0  0  0  0  0  0  0  0  0  0
   -3.8550   20.4580   70.2500 C   0  0  0  0  0  0  0  0  0  0  0  0
   -5.0980   20.9830   70.5850 F   0  0  0  0  0  0  0  0  0  0  0  0
   -2.9750   20.1840   71.3530 O   0  0  0  0  0  0  0  0  0  0  0  0
   -2.6980   21.2570   70.6040 C   0  0  0  0  0  0  0  0  0  0  0  0
   -1.7080   21.5610   69.9570 O   0  0  0  0  0  0  0  0  0  0  0  0
  -10.6460   15.6350   65.8650 O   0  0  0  0  0  0  0  0  0  0  0  0
  -10.4880   14.3390   65.2370 C   0  0  0  0  0  0  0  0  0  0  0  0
  -10.3200   13.2980   66.1990 O   0  0  0  0  0  0  0  0  0  0  0  0
   -9.9960   12.0790   65.6330 C   0  0  0  0  0  0  0  0  0  0  0  0
   -9.1530   11.2340   66.2380 C   0  0  0  0  0  0  0  0  0  0  0  0
  -10.6470   11.6740   64.3590 C   0  0  0  0  0  0  0  0  0  0  0  0
   -8.5410   11.5240   67.4330 O   0  0  0  0  0  0  0  0  0  0  0  0
  -11.8210   12.5730   64.0160 C   0  0  0  0  0  0  0  0  0  0  0  0
  -10.2520   10.7900   63.6240 O   0  0  0  0  0  0  0  0  0  0  0  0
  -11.7370   14.0340   64.4250 C   0  0  0  0  0  0  0  0  0  0  0  0
  -12.8200   12.1260   63.4840 O   0  0  0  0  0  0  0  0  0  0  0  0
  -12.5800   14.8590   64.1030 O   0  0  0  0  0  0  0  0  0  0  0  0
  -12.2140   15.3590   73.5960 C   0  0  0  0  0  0  0  0  0  0  0  0
  -12.0000   16.6980   74.0800 O   0  0  0  0  0  0  0  0  0  0  0  0
  -13.3130   16.1070   74.1290 O   0  0  0  0  0  0  0  0  0  0  0  0
  1 40  1  0  0  0  0
  1  2  2  0  0  0  0
  1  6  1  0  0  0  0
  2  3  1  0  0  0  0
  2 17  1  0  0  0  0
  3  4  1  0  0  0  0
  4  5  2  0  0  0  0
  4 15  1  0  0  0  0
  5  6  1  0  0  0  0
  5  7  1  0  0  0  0
  7  8  1  0  0  0  0
  7 13  1  0  0  0  0
  8  9  1  0  0  0  0
  9 10  2  0  0  0  0
  9 11  1  0  0  0  0
 11 12  1  0  0  0  0
 12 13  1  0  0  0  0
 12 16  1  0  0  0  0
 13 14  2  0  0  0  0
 14 15  1  0  0  0  0
 14 52  1  0  0  0  0
 17 18  2  0  0  0  0
 17 23  1  0  0  0  0
 18 19  1  0  0  0  0
 19 20  1  0  0  0  0
 19 21  2  0  0  0  0
 21 22  1  0  0  0  0
 22 23  2  0  0  0  0
 22 24  1  0  0  0  0
 23 25  1  0  0  0  0
 24 28  2  0  0  0  0
 24 34  1  0  0  0  0
 25 26  2  0  0  0  0
 26 27  1  0  0  0  0
 26 28  1  0  0  0  0
 27 29  2  0  0  0  0
 27 30  1  0  0  0  0
 28 33  1  0  0  0  0
 30 31  2  0  0  0  0
 30 32  1  0  0  0  0
 32 33  1  0  0  0  0
 32 35  1  0  0  0  0
 35 36  1  0  0  0  0
 35 37  1  0  0  0  0
 35 38  1  0  0  0  0
 37 38  1  0  0  0  0
 38 39  2  0  0  0  0
 40 41  1  0  0  0  0
 41 42  1  0  0  0  0
 41 49  1  0  0  0  0
 42 43  1  0  0  0  0
 43 44  2  0  0  0  0
 43 45  1  0  0  0  0
 44 46  1  0  0  0  0
 45 47  1  0  0  0  0
 45 48  2  0  0  0  0
 47 49  1  0  0  0  0
 47 50  2  0  0  0  0
 49 51  2  0  0  0  0
 52 53  1  0  0  0  0
 52 54  1  0  0  0  0
 53 54  1  0  0  0  0
M  CHG  2  15   1  19   1
M  END