
 OpenBabel09292018393D

 51 59  0  0  1  0  0  0  0  0999 V2000
  -10.2740   15.1250   67.6890 C   0  0  0  0  0  0  0  0  0  0  0  0
  -10.6740   16.3600   68.0710 C   0  0  0  0  0  0  0  0  0  0  0  0
  -11.5880   16.5760   69.0970 O   0  0  0  0  0  0  0  0  0  0  0  0
  -12.0570   15.5090   69.8340 C   0  0  0  0  0  0  0  0  0  0  0  0
  -11.6940   14.2550   69.5660 C   0  0  0  0  0  0  0  0  0  0  0  0
  -10.7820   13.9060   68.4370 C   0  0  0  0  0  0  0  0  0  0  0  0
  -12.2810   13.1830   70.3840 C   0  0  0  0  0  0  0  0  0  0  0  0
  -12.1580   11.9490   70.0800 N   0  0  0  0  0  0  0  0  0  0  0  0
  -12.7420   11.0280   70.8980 C   0  0  0  0  0  0  0  0  0  0  0  0
  -12.5160    9.8460   70.6870 O   0  0  0  0  0  0  0  0  0  0  0  0
  -13.5570   11.3590   71.9390 N   0  0  0  0  0  0  0  0  0  0  0  0
  -13.6510   12.5920   72.2380 C   0  0  0  0  0  0  0  0  0  0  0  0
  -12.9870   13.6020   71.5270 N   0  0  0  0  0  0  0  0  0  0  0  0
  -13.0390   14.9700   72.0130 C   0  0  0  0  0  0  0  0  0  0  0  0
  -12.9100   15.8100   70.8550 N   0  0  0  0  0  0  0  0  0  0  0  0
  -10.0980   17.6200   67.5730 C   0  0  0  0  0  0  0  0  0  0  0  0
  -10.8810   18.2070   66.6380 N   0  0  0  0  0  0  0  0  0  0  0  0
  -10.3940   19.3130   66.0710 C   0  0  0  0  0  0  0  0  0  0  0  0
   -9.2150   19.8790   66.3460 N   0  0  0  0  0  0  0  0  0  0  0  0
   -8.4480   19.2810   67.2590 C   0  0  0  0  0  0  0  0  0  0  0  0
   -8.8230   18.1010   67.9220 C   0  0  0  0  0  0  0  0  0  0  0  0
   -7.2160   19.8570   67.5420 C   0  0  0  0  0  0  0  0  0  0  0  0
   -7.9040   17.4960   68.8230 C   0  0  0  0  0  0  0  0  0  0  0  0
   -6.6550   18.0870   69.0590 C   0  0  0  0  0  0  0  0  0  0  0  0
   -6.3230   19.2890   68.4490 C   0  0  0  0  0  0  0  0  0  0  0  0
   -5.6590   17.4210   69.9070 C   0  0  0  0  0  0  0  0  0  0  0  0
   -5.1580   19.9750   68.6490 O   0  0  0  0  0  0  0  0  0  0  0  0
   -4.3860   19.6140   69.8000 C   0  0  0  0  0  0  0  0  0  0  0  0
   -4.3340   18.1310   70.0740 C   0  0  0  0  0  0  0  0  0  0  0  0
   -3.3300   17.5270   70.4260 O   0  0  0  0  0  0  0  0  0  0  0  0
   -5.8670   16.3290   70.4140 O   0  0  0  0  0  0  0  0  0  0  0  0
   -4.8430   20.3690   71.0080 C   0  0  0  0  0  0  0  0  0  0  0  0
   -6.2760   20.4710   71.2060 O   0  0  0  0  0  0  0  0  0  0  0  0
   -4.0760   20.1120   72.1860 O   0  0  0  0  0  0  0  0  0  0  0  0
   -4.0350   21.3710   71.7050 C   0  0  0  0  0  0  0  0  0  0  0  0
   -4.3680   22.4060   72.2300 O   0  0  0  0  0  0  0  0  0  0  0  0
   -9.3180   14.9500   66.6900 O   0  0  0  0  0  0  0  0  0  0  0  0
   -9.5640   13.8950   65.7510 C   0  0  0  0  0  0  0  0  0  0  0  0
   -9.6270   12.6290   66.4120 O   0  0  0  0  0  0  0  0  0  0  0  0
   -9.7360   11.5390   65.5660 C   0  0  0  0  0  0  0  0  0  0  0  0
   -9.3340   10.3270   65.9640 C   0  0  0  0  0  0  0  0  0  0  0  0
  -10.3550   11.6680   64.2170 C   0  0  0  0  0  0  0  0  0  0  0  0
   -8.7770   10.1060   67.1980 O   0  0  0  0  0  0  0  0  0  0  0  0
  -11.1340   12.9570   64.0370 C   0  0  0  0  0  0  0  0  0  0  0  0
  -10.2230   10.8550   63.3200 O   0  0  0  0  0  0  0  0  0  0  0  0
  -10.8700   14.0960   64.9970 C   0  0  0  0  0  0  0  0  0  0  0  0
  -11.9410   13.0760   63.1300 O   0  0  0  0  0  0  0  0  0  0  0  0
  -11.6380   15.0380   65.1000 O   0  0  0  0  0  0  0  0  0  0  0  0
  -11.9430   15.2310   73.0040 C   0  0  0  0  0  0  0  0  0  0  0  0
  -11.9720   16.5210   73.6180 O   0  0  0  0  0  0  0  0  0  0  0  0
  -12.3660   15.3430   74.3610 O   0  0  0  0  0  0  0  0  0  0  0  0
  1 37  1  0  0  0  0
  1  2  2  0  0  0  0
  1  6  1  0  0  0  0
  2  3  1  0  0  0  0
  2 16  1  0  0  0  0
  3  4  1  0  0  0  0
  4  5  2  0  0  0  0
  4 15  1  0  0  0  0
  5  6  1  0  0  0  0
  5  7  1  0  0  0  0
  7  8  2  0  0  0  0
  7 13  1  0  0  0  0
  8  9  1  0  0  0  0
  9 10  2  0  0  0  0
  9 11  1  0  0  0  0
 11 12  2  0  0  0  0
 12 13  1  0  0  0  0
 13 14  1  0  0  0  0
 14 15  1  0  0  0  0
 14 49  1  0  0  0  0
 16 17  2  0  0  0  0
 16 21  1  0  0  0  0
 17 18  1  0  0  0  0
 18 19  2  0  0  0  0
 19 20  1  0  0  0  0
 20 21  2  0  0  0  0
 20 22  1  0  0  0  0
 21 23  1  0  0  0  0
 22 25  2  0  0  0  0
 23 24  2  0  0  0  0
 24 25  1  0  0  0  0
 24 26  1  0  0  0  0
 25 27  1  0  0  0  0
 26 29  1  0  0  0  0
 26 31  2  0  0  0  0
 27 28  1  0  0  0  0
 28 29  1  0  0  0  0
 28 32  1  0  0  0  0
 29 30  2  0  0  0  0
 32 33  1  0  0  0  0
 32 34  1  0  0  0  0
 32 35  1  0  0  0  0
 34 35  1  0  0  0  0
 35 36  2  0  0  0  0
 37 38  1  0  0  0  0
 38 39  1  0  0  0  0
 38 46  1  0  0  0  0
 39 40  1  0  0  0  0
 40 41  2  0  0  0  0
 40 42  1  0  0  0  0
 41 43  1  0  0  0  0
 42 44  1  0  0  0  0
 42 45  2  0  0  0  0
 44 46  1  0  0  0  0
 44 47  2  0  0  0  0
 46 48  2  0  0  0  0
 49 50  1  0  0  0  0
 49 51  1  0  0  0  0
 50 51  1  0  0  0  0
M  END
