
 OpenBabel11232001343D

 52 60  0  0  1  0  0  0  0  0999 V2000
  -11.1590   15.6980   66.9300 C   0  0  0  0  0  0  0  0  0  0  0  0
  -10.8080   16.7490   67.6940 C   0  0  0  0  0  0  0  0  0  0  0  0
  -11.1990   16.8950   69.0140 O   0  0  0  0  0  0  0  0  0  0  0  0
  -11.7770   15.8150   69.6600 C   0  0  0  0  0  0  0  0  0  0  0  0
  -12.1120   14.6810   69.0130 C   0  0  0  0  0  0  0  0  0  0  0  0
  -11.9880   14.5790   67.5200 C   0  0  0  0  0  0  0  0  0  0  0  0
  -12.6670   13.5060   69.7900 C   0  0  0  0  0  0  0  0  0  0  0  0
  -11.7830   12.3780   69.6280 N   0  0  0  0  0  0  0  0  0  0  0  0
  -11.7860   11.2970   70.4440 C   0  0  0  0  0  0  0  0  0  0  0  0
  -11.2100   10.2660   70.1200 O   0  0  0  0  0  0  0  0  0  0  0  0
  -12.4100   11.4310   71.6350 N   0  0  0  0  0  0  0  0  0  0  0  0
  -13.2570   12.5340   72.0020 C   0  0  0  0  0  0  0  0  0  0  0  0
  -12.7920   13.7480   71.2730 C   0  0  0  0  0  0  0  0  0  0  0  0
  -12.4570   14.9340   71.8290 C   0  0  0  0  0  0  0  0  0  0  0  0
  -11.9800   15.9420   71.0070 N   0  0  0  0  0  0  0  0  0  0  0  0
   -9.8590   17.7740   67.2430 C   0  0  0  0  0  0  0  0  0  0  0  0
  -10.3540   18.7440   66.3790 C   0  0  0  0  0  0  0  0  0  0  0  0
   -9.5630   19.7200   65.9310 N   0  0  0  0  0  0  0  0  0  0  0  0
  -10.0750   20.6440   65.0970 F   0  0  0  0  0  0  0  0  0  0  0  0
   -8.2880   19.8180   66.2710 N   0  0  0  0  0  0  0  0  0  0  0  0
   -7.7640   18.9190   67.1080 C   0  0  0  0  0  0  0  0  0  0  0  0
   -8.5140   17.8530   67.6380 C   0  0  0  0  0  0  0  0  0  0  0  0
   -6.4290   19.0540   67.4760 C   0  0  0  0  0  0  0  0  0  0  0  0
   -7.8850   16.9430   68.5230 C   0  0  0  0  0  0  0  0  0  0  0  0
   -6.5470   17.1220   68.8960 C   0  0  0  0  0  0  0  0  0  0  0  0
   -5.8220   18.1850   68.3840 C   0  0  0  0  0  0  0  0  0  0  0  0
   -5.8990   16.1920   69.8250 C   0  0  0  0  0  0  0  0  0  0  0  0
   -4.5220   18.4520   68.7030 O   0  0  0  0  0  0  0  0  0  0  0  0
   -4.0800   17.9760   69.9830 C   0  0  0  0  0  0  0  0  0  0  0  0
   -4.5320   16.5780   70.3470 C   0  0  0  0  0  0  0  0  0  0  0  0
   -3.8950   15.8150   71.0600 O   0  0  0  0  0  0  0  0  0  0  0  0
   -6.4440   15.1520   70.1570 O   0  0  0  0  0  0  0  0  0  0  0  0
   -4.4420   18.9560   71.0560 C   0  0  0  0  0  0  0  0  0  0  0  0
   -5.4020   18.5100   72.0500 O   0  0  0  0  0  0  0  0  0  0  0  0
   -3.3540   19.7340   71.5530 O   0  0  0  0  0  0  0  0  0  0  0  0
   -4.3180   20.4080   70.9000 C   0  0  0  0  0  0  0  0  0  0  0  0
   -5.0570   21.2850   71.2900 O   0  0  0  0  0  0  0  0  0  0  0  0
  -10.6390   15.5610   65.6530 O   0  0  0  0  0  0  0  0  0  0  0  0
  -10.3510   14.2240   65.2110 C   0  0  0  0  0  0  0  0  0  0  0  0
  -10.1010   13.3530   66.3070 O   0  0  0  0  0  0  0  0  0  0  0  0
   -9.7850   12.0540   65.9370 C   0  0  0  0  0  0  0  0  0  0  0  0
   -8.9890   11.3060   66.7090 C   0  0  0  0  0  0  0  0  0  0  0  0
  -10.3480   11.4360   64.6990 C   0  0  0  0  0  0  0  0  0  0  0  0
   -8.4270   11.7820   67.8640 O   0  0  0  0  0  0  0  0  0  0  0  0
  -11.3850   12.2960   64.0010 C   0  0  0  0  0  0  0  0  0  0  0  0
   -9.9930   10.3620   64.2490 O   0  0  0  0  0  0  0  0  0  0  0  0
  -11.5670   13.7200   64.4600 C   0  0  0  0  0  0  0  0  0  0  0  0
  -12.0380   11.8680   63.0640 O   0  0  0  0  0  0  0  0  0  0  0  0
  -12.5900   14.3520   64.2380 O   0  0  0  0  0  0  0  0  0  0  0  0
  -12.5300   15.2480   73.2750 C   0  0  0  0  0  0  0  0  0  0  0  0
  -12.0500   16.4950   73.8010 O   0  0  0  0  0  0  0  0  0  0  0  0
  -13.4630   16.2130   73.7960 O   0  0  0  0  0  0  0  0  0  0  0  0
  1 38  1  0  0  0  0
  1  2  2  0  0  0  0
  1  6  1  0  0  0  0
  2  3  1  0  0  0  0
  2 16  1  0  0  0  0
  3  4  1  0  0  0  0
  4  5  2  0  0  0  0
  4 15  1  0  0  0  0
  5  6  1  0  0  0  0
  5  7  1  0  0  0  0
  7  8  1  0  0  0  0
  7 13  1  0  0  0  0
  8  9  1  0  0  0  0
  9 10  2  0  0  0  0
  9 11  1  0  0  0  0
 11 12  1  0  0  0  0
 12 13  1  0  0  0  0
 13 14  2  0  0  0  0
 14 15  1  0  0  0  0
 14 50  1  0  0  0  0
 16 17  2  0  0  0  0
 16 22  1  0  0  0  0
 17 18  1  0  0  0  0
 18 19  1  0  0  0  0
 18 20  2  0  0  0  0
 20 21  1  0  0  0  0
 21 22  2  0  0  0  0
 21 23  1  0  0  0  0
 22 24  1  0  0  0  0
 23 26  2  0  0  0  0
 24 25  2  0  0  0  0
 25 26  1  0  0  0  0
 25 27  1  0  0  0  0
 26 28  1  0  0  0  0
 27 30  1  0  0  0  0
 27 32  2  0  0  0  0
 28 29  1  0  0  0  0
 29 30  1  0  0  0  0
 29 33  1  0  0  0  0
 30 31  2  0  0  0  0
 33 34  1  0  0  0  0
 33 35  1  0  0  0  0
 33 36  1  0  0  0  0
 35 36  1  0  0  0  0
 36 37  2  0  0  0  0
 38 39  1  0  0  0  0
 39 40  1  0  0  0  0
 39 47  1  0  0  0  0
 40 41  1  0  0  0  0
 41 42  2  0  0  0  0
 41 43  1  0  0  0  0
 42 44  1  0  0  0  0
 43 45  1  0  0  0  0
 43 46  2  0  0  0  0
 45 47  1  0  0  0  0
 45 48  2  0  0  0  0
 47 49  2  0  0  0  0
 50 51  1  0  0  0  0
 50 52  1  0  0  0  0
 51 52  1  0  0  0  0
M  CHG  1  18   1
M  END