
 OpenBabel11242000303D

 54 62  0  0  1  0  0  0  0  0999 V2000
  -10.8670   15.8380   67.6410 C   0  0  0  0  0  0  0  0  0  0  0  0
  -10.4720   16.9680   68.3050 C   0  0  0  0  0  0  0  0  0  0  0  0
  -10.8170   17.1260   69.6710 N   0  0  0  0  0  0  0  0  0  0  0  0
  -11.5560   16.1940   70.3960 C   0  0  0  0  0  0  0  0  0  0  0  0
  -11.9330   15.0460   69.8170 C   0  0  0  0  0  0  0  0  0  0  0  0
  -11.5700   14.7270   68.4020 C   0  0  0  0  0  0  0  0  0  0  0  0
  -12.7720   14.0110   70.5080 C   0  0  0  0  0  0  0  0  0  0  0  0
  -12.0090   12.8250   70.6140 O   0  0  0  0  0  0  0  0  0  0  0  0
  -12.6240   11.7590   71.1960 C   0  0  0  0  0  0  0  0  0  0  0  0
  -12.2220   10.6200   71.0230 O   0  0  0  0  0  0  0  0  0  0  0  0
  -13.6840   12.0480   71.9880 O   0  0  0  0  0  0  0  0  0  0  0  0
  -13.9760   13.3540   72.4830 C   0  0  0  0  0  0  0  0  0  0  0  0
  -13.1060   14.4070   71.8900 C   0  0  0  0  0  0  0  0  0  0  0  0
  -12.6680   15.5580   72.4500 C   0  0  0  0  0  0  0  0  0  0  0  0
  -11.8860   16.4510   71.7130 O   0  0  0  0  0  0  0  0  0  0  0  0
  -15.2870   13.7020   72.0840 O   0  0  0  0  0  0  0  0  0  0  0  0
   -9.6880   18.0950   67.6450 C   0  0  0  0  0  0  0  0  0  0  0  0
  -10.3040   18.8720   66.6560 C   0  0  0  0  0  0  0  0  0  0  0  0
   -9.6740   19.8950   66.0700 N   0  0  0  0  0  0  0  0  0  0  0  0
  -10.3040   20.5820   65.1000 F   0  0  0  0  0  0  0  0  0  0  0  0
   -8.4570   20.2670   66.4100 N   0  0  0  0  0  0  0  0  0  0  0  0
   -7.7750   19.5620   67.3030 C   0  0  0  0  0  0  0  0  0  0  0  0
   -8.3310   18.4320   67.9460 C   0  0  0  0  0  0  0  0  0  0  0  0
   -6.4550   19.9460   67.5760 C   0  0  0  0  0  0  0  0  0  0  0  0
   -7.4540   17.7040   68.8030 C   0  0  0  0  0  0  0  0  0  0  0  0
   -6.1250   18.1040   69.0310 C   0  0  0  0  0  0  0  0  0  0  0  0
   -5.2520   17.2890   69.8850 C   0  0  0  0  0  0  0  0  0  0  0  0
   -5.6140   19.2390   68.4340 C   0  0  0  0  0  0  0  0  0  0  0  0
   -5.7100   16.3350   70.4950 O   0  0  0  0  0  0  0  0  0  0  0  0
   -3.7990   17.7000   69.9550 C   0  0  0  0  0  0  0  0  0  0  0  0
   -2.9350   16.8840   70.2360 O   0  0  0  0  0  0  0  0  0  0  0  0
   -3.5640   19.1690   69.6790 C   0  0  0  0  0  0  0  0  0  0  0  0
   -4.3360   19.6930   68.5860 O   0  0  0  0  0  0  0  0  0  0  0  0
   -5.9710   21.0400   66.9640 F   0  0  0  0  0  0  0  0  0  0  0  0
   -3.8120   19.9810   70.9080 C   0  0  0  0  0  0  0  0  0  0  0  0
   -4.6060   19.3510   71.9500 O   0  0  0  0  0  0  0  0  0  0  0  0
   -2.7180   20.7690   71.3520 O   0  0  0  0  0  0  0  0  0  0  0  0
   -3.8080   21.4510   70.9300 C   0  0  0  0  0  0  0  0  0  0  0  0
   -4.5490   22.1770   71.5420 O   0  0  0  0  0  0  0  0  0  0  0  0
  -10.7670   15.6990   66.2580 O   0  0  0  0  0  0  0  0  0  0  0  0
  -10.3040   14.4710   65.6070 C   0  0  0  0  0  0  0  0  0  0  0  0
   -9.9730   13.4150   66.4900 O   0  0  0  0  0  0  0  0  0  0  0  0
   -9.7250   12.1970   65.8840 C   0  0  0  0  0  0  0  0  0  0  0  0
   -8.5840   11.5350   66.1000 C   0  0  0  0  0  0  0  0  0  0  0  0
  -10.7860   11.6130   65.0310 C   0  0  0  0  0  0  0  0  0  0  0  0
   -7.5740   12.0590   66.8640 O   0  0  0  0  0  0  0  0  0  0  0  0
  -11.8610   12.6450   64.7690 C   0  0  0  0  0  0  0  0  0  0  0  0
  -10.7890   10.4980   64.5510 O   0  0  0  0  0  0  0  0  0  0  0  0
  -11.3930   14.0770   64.6060 C   0  0  0  0  0  0  0  0  0  0  0  0
  -13.0490   12.3860   64.8420 O   0  0  0  0  0  0  0  0  0  0  0  0
  -11.8590   14.8200   63.7520 O   0  0  0  0  0  0  0  0  0  0  0  0
  -13.0170   16.0000   73.8240 C   0  0  0  0  0  0  0  0  0  0  0  0
  -12.2410   15.5460   74.9480 O   0  0  0  0  0  0  0  0  0  0  0  0
  -12.1710   16.9210   74.5270 O   0  0  0  0  0  0  0  0  0  0  0  0
  1 40  1  0  0  0  0
  1  2  2  0  0  0  0
  1  6  1  0  0  0  0
  2  3  1  0  0  0  0
  2 17  1  0  0  0  0
  3  4  1  0  0  0  0
  4  5  2  0  0  0  0
  4 15  1  0  0  0  0
  5  6  1  0  0  0  0
  5  7  1  0  0  0  0
  7  8  1  0  0  0  0
  7 13  1  0  0  0  0
  8  9  1  0  0  0  0
  9 10  2  0  0  0  0
  9 11  1  0  0  0  0
 11 12  1  0  0  0  0
 12 13  1  0  0  0  0
 12 16  1  0  0  0  0
 13 14  2  0  0  0  0
 14 15  1  0  0  0  0
 14 52  1  0  0  0  0
 17 18  2  0  0  0  0
 17 23  1  0  0  0  0
 18 19  1  0  0  0  0
 19 20  1  0  0  0  0
 19 21  2  0  0  0  0
 21 22  1  0  0  0  0
 22 23  2  0  0  0  0
 22 24  1  0  0  0  0
 23 25  1  0  0  0  0
 24 28  2  0  0  0  0
 24 34  1  0  0  0  0
 25 26  2  0  0  0  0
 26 27  1  0  0  0  0
 26 28  1  0  0  0  0
 27 29  2  0  0  0  0
 27 30  1  0  0  0  0
 28 33  1  0  0  0  0
 30 31  2  0  0  0  0
 30 32  1  0  0  0  0
 32 33  1  0  0  0  0
 32 35  1  0  0  0  0
 35 36  1  0  0  0  0
 35 37  1  0  0  0  0
 35 38  1  0  0  0  0
 37 38  1  0  0  0  0
 38 39  2  0  0  0  0
 40 41  1  0  0  0  0
 41 42  1  0  0  0  0
 41 49  1  0  0  0  0
 42 43  1  0  0  0  0
 43 44  2  0  0  0  0
 43 45  1  0  0  0  0
 44 46  1  0  0  0  0
 45 47  1  0  0  0  0
 45 48  2  0  0  0  0
 47 49  1  0  0  0  0
 47 50  2  0  0  0  0
 49 51  2  0  0  0  0
 52 53  1  0  0  0  0
 52 54  1  0  0  0  0
 53 54  1  0  0  0  0
M  CHG  2  15   1  19   1
M  END