
 OpenBabel11212001493D

 53 61  0  0  1  0  0  0  0  0999 V2000
  -11.1060   15.8630   67.0910 C   0  0  0  0  0  0  0  0  0  0  0  0
  -10.5300   16.8860   67.7560 C   0  0  0  0  0  0  0  0  0  0  0  0
  -10.6710   17.0780   69.1270 O   0  0  0  0  0  0  0  0  0  0  0  0
  -11.3670   16.1480   69.8770 C   0  0  0  0  0  0  0  0  0  0  0  0
  -11.9620   15.0820   69.3220 C   0  0  0  0  0  0  0  0  0  0  0  0
  -11.9410   14.8580   67.8520 C   0  0  0  0  0  0  0  0  0  0  0  0
  -12.6980   14.0710   70.1650 C   0  0  0  0  0  0  0  0  0  0  0  0
  -12.0780   12.8000   69.9570 O   0  0  0  0  0  0  0  0  0  0  0  0
  -12.2310   11.7730   70.8280 C   0  0  0  0  0  0  0  0  0  0  0  0
  -11.8110   10.6530   70.5620 O   0  0  0  0  0  0  0  0  0  0  0  0
  -12.8320   12.0340   72.0150 O   0  0  0  0  0  0  0  0  0  0  0  0
  -13.3500   13.3080   72.3710 C   0  0  0  0  0  0  0  0  0  0  0  0
  -12.6770   14.3810   71.6190 C   0  0  0  0  0  0  0  0  0  0  0  0
  -12.0830   15.4920   72.1090 C   0  0  0  0  0  0  0  0  0  0  0  0
  -11.4320   16.3430   71.2310 N   0  0  0  0  0  0  0  0  0  0  0  0
  -14.7360   13.3420   72.0840 O   0  0  0  0  0  0  0  0  0  0  0  0
   -9.6360   17.8770   67.1410 C   0  0  0  0  0  0  0  0  0  0  0  0
  -10.1470   18.7480   66.1950 C   0  0  0  0  0  0  0  0  0  0  0  0
   -9.4250   19.7600   65.6910 N   0  0  0  0  0  0  0  0  0  0  0  0
   -8.1440   19.9610   66.1400 N   0  0  0  0  0  0  0  0  0  0  0  0
   -7.5770   19.1480   67.0520 C   0  0  0  0  0  0  0  0  0  0  0  0
   -8.2970   18.0510   67.5680 C   0  0  0  0  0  0  0  0  0  0  0  0
   -6.2770   19.3740   67.5350 C   0  0  0  0  0  0  0  0  0  0  0  0
   -7.6590   17.1880   68.4930 C   0  0  0  0  0  0  0  0  0  0  0  0
   -6.3510   17.4260   68.9260 C   0  0  0  0  0  0  0  0  0  0  0  0
   -5.6940   16.4850   69.8420 C   0  0  0  0  0  0  0  0  0  0  0  0
   -5.6660   18.5430   68.4820 C   0  0  0  0  0  0  0  0  0  0  0  0
   -6.2300   15.4480   70.1970 O   0  0  0  0  0  0  0  0  0  0  0  0
   -4.3020   16.8530   70.3010 C   0  0  0  0  0  0  0  0  0  0  0  0
   -3.5590   16.0230   70.8060 O   0  0  0  0  0  0  0  0  0  0  0  0
   -3.9580   18.3140   70.1270 C   0  0  0  0  0  0  0  0  0  0  0  0
   -4.4110   18.9030   68.8990 O   0  0  0  0  0  0  0  0  0  0  0  0
   -5.5780   20.4730   67.0830 O   0  0  0  0  0  0  0  0  0  0  0  0
   -4.4300   19.1130   71.3010 C   0  0  0  0  0  0  0  0  0  0  0  0
   -5.4380   18.4980   72.1390 O   0  0  0  0  0  0  0  0  0  0  0  0
   -3.4000   19.8250   71.9880 O   0  0  0  0  0  0  0  0  0  0  0  0
   -4.3480   20.5720   71.3860 C   0  0  0  0  0  0  0  0  0  0  0  0
   -5.1220   21.3670   71.8630 O   0  0  0  0  0  0  0  0  0  0  0  0
  -10.9500   15.7120   65.7120 O   0  0  0  0  0  0  0  0  0  0  0  0
  -10.6810   14.3770   65.2730 C   0  0  0  0  0  0  0  0  0  0  0  0
  -10.3120   13.5270   66.3680 O   0  0  0  0  0  0  0  0  0  0  0  0
   -9.7490   12.3310   65.9690 C   0  0  0  0  0  0  0  0  0  0  0  0
   -8.7120   11.7960   66.6280 C   0  0  0  0  0  0  0  0  0  0  0  0
  -10.3270   11.6010   64.8090 C   0  0  0  0  0  0  0  0  0  0  0  0
   -8.1110   12.4060   67.7000 O   0  0  0  0  0  0  0  0  0  0  0  0
  -11.5540   12.2800   64.2180 C   0  0  0  0  0  0  0  0  0  0  0  0
   -9.8550   10.5790   64.3390 O   0  0  0  0  0  0  0  0  0  0  0  0
  -11.8740   13.7050   64.6210 C   0  0  0  0  0  0  0  0  0  0  0  0
  -12.2510   11.6960   63.4030 O   0  0  0  0  0  0  0  0  0  0  0  0
  -12.9660   14.2040   64.4010 O   0  0  0  0  0  0  0  0  0  0  0  0
  -12.0650   15.8800   73.5360 C   0  0  0  0  0  0  0  0  0  0  0  0
  -11.9880   17.2550   73.9480 O   0  0  0  0  0  0  0  0  0  0  0  0
  -13.1990   16.5030   74.1580 O   0  0  0  0  0  0  0  0  0  0  0  0
  1 39  1  0  0  0  0
  1  2  2  0  0  0  0
  1  6  1  0  0  0  0
  2  3  1  0  0  0  0
  2 17  1  0  0  0  0
  3  4  1  0  0  0  0
  4  5  2  0  0  0  0
  4 15  1  0  0  0  0
  5  6  1  0  0  0  0
  5  7  1  0  0  0  0
  7  8  1  0  0  0  0
  7 13  1  0  0  0  0
  8  9  1  0  0  0  0
  9 10  2  0  0  0  0
  9 11  1  0  0  0  0
 11 12  1  0  0  0  0
 12 13  1  0  0  0  0
 12 16  1  0  0  0  0
 13 14  2  0  0  0  0
 14 15  1  0  0  0  0
 14 51  1  0  0  0  0
 17 18  2  0  0  0  0
 17 22  1  0  0  0  0
 18 19  1  0  0  0  0
 19 20  2  0  0  0  0
 20 21  1  0  0  0  0
 21 22  2  0  0  0  0
 21 23  1  0  0  0  0
 22 24  1  0  0  0  0
 23 27  2  0  0  0  0
 23 33  1  0  0  0  0
 24 25  2  0  0  0  0
 25 26  1  0  0  0  0
 25 27  1  0  0  0  0
 26 28  2  0  0  0  0
 26 29  1  0  0  0  0
 27 32  1  0  0  0  0
 29 30  2  0  0  0  0
 29 31  1  0  0  0  0
 31 32  1  0  0  0  0
 31 34  1  0  0  0  0
 34 35  1  0  0  0  0
 34 36  1  0  0  0  0
 34 37  1  0  0  0  0
 36 37  1  0  0  0  0
 37 38  2  0  0  0  0
 39 40  1  0  0  0  0
 40 41  1  0  0  0  0
 40 48  1  0  0  0  0
 41 42  1  0  0  0  0
 42 43  2  0  0  0  0
 42 44  1  0  0  0  0
 43 45  1  0  0  0  0
 44 46  1  0  0  0  0
 44 47  2  0  0  0  0
 46 48  1  0  0  0  0
 46 49  2  0  0  0  0
 48 50  2  0  0  0  0
 51 52  1  0  0  0  0
 51 53  1  0  0  0  0
 52 53  1  0  0  0  0
M  END
