
 OpenBabel11242002003D

 54 62  0  0  1  0  0  0  0  0999 V2000
  -10.8820   15.6420   67.3240 C   0  0  0  0  0  0  0  0  0  0  0  0
  -10.4890   16.7460   68.0080 C   0  0  0  0  0  0  0  0  0  0  0  0
  -10.6940   16.8490   69.3960 O   0  0  0  0  0  0  0  0  0  0  0  0
  -11.3380   15.8320   70.1080 C   0  0  0  0  0  0  0  0  0  0  0  0
  -11.7910   14.7300   69.4890 C   0  0  0  0  0  0  0  0  0  0  0  0
  -11.5750   14.5000   68.0280 C   0  0  0  0  0  0  0  0  0  0  0  0
  -12.5820   13.6710   70.2020 C   0  0  0  0  0  0  0  0  0  0  0  0
  -11.9110   12.4300   70.1000 O   0  0  0  0  0  0  0  0  0  0  0  0
  -12.6260   11.3710   70.5790 C   0  0  0  0  0  0  0  0  0  0  0  0
  -12.4280   10.2310   70.1910 O   0  0  0  0  0  0  0  0  0  0  0  0
  -13.5970   11.7010   71.4690 O   0  0  0  0  0  0  0  0  0  0  0  0
  -13.4050   12.8220   72.3260 C   0  0  0  0  0  0  0  0  0  0  0  0
  -12.6870   13.9430   71.6500 C   0  0  0  0  0  0  0  0  0  0  0  0
  -12.1720   15.0480   72.2330 C   0  0  0  0  0  0  0  0  0  0  0  0
  -11.5080   15.9990   71.4650 O   0  0  0  0  0  0  0  0  0  0  0  0
  -14.6690   13.3640   72.6570 O   0  0  0  0  0  0  0  0  0  0  0  0
   -9.8360   17.9560   67.3780 C   0  0  0  0  0  0  0  0  0  0  0  0
  -10.5880   18.7850   66.5360 C   0  0  0  0  0  0  0  0  0  0  0  0
  -10.0560   19.8740   65.9670 N   0  0  0  0  0  0  0  0  0  0  0  0
  -10.8140   20.6140   65.1360 F   0  0  0  0  0  0  0  0  0  0  0  0
   -8.8220   20.2640   66.1980 N   0  0  0  0  0  0  0  0  0  0  0  0
   -8.0380   19.5470   67.0030 C   0  0  0  0  0  0  0  0  0  0  0  0
   -8.4870   18.3550   67.6140 C   0  0  0  0  0  0  0  0  0  0  0  0
   -6.7370   20.0000   67.2440 C   0  0  0  0  0  0  0  0  0  0  0  0
   -7.5450   17.6500   68.4070 C   0  0  0  0  0  0  0  0  0  0  0  0
   -6.2520   18.1440   68.6460 C   0  0  0  0  0  0  0  0  0  0  0  0
   -5.3420   17.4040   69.5250 C   0  0  0  0  0  0  0  0  0  0  0  0
   -5.8430   19.3330   68.0810 C   0  0  0  0  0  0  0  0  0  0  0  0
   -5.6930   16.3350   70.0030 O   0  0  0  0  0  0  0  0  0  0  0  0
   -4.0090   18.0520   69.8370 C   0  0  0  0  0  0  0  0  0  0  0  0
   -3.1180   17.4050   70.3640 O   0  0  0  0  0  0  0  0  0  0  0  0
   -3.9490   19.5280   69.5090 C   0  0  0  0  0  0  0  0  0  0  0  0
   -4.6120   19.8870   68.2830 O   0  0  0  0  0  0  0  0  0  0  0  0
   -6.3420   21.1470   66.6690 F   0  0  0  0  0  0  0  0  0  0  0  0
   -4.4910   20.3580   70.6390 C   0  0  0  0  0  0  0  0  0  0  0  0
   -5.7690   21.0010   70.4230 O   0  0  0  0  0  0  0  0  0  0  0  0
   -4.3070   19.8140   71.9470 O   0  0  0  0  0  0  0  0  0  0  0  0
   -3.5710   21.0000   71.6430 C   0  0  0  0  0  0  0  0  0  0  0  0
   -4.0130   22.1790   72.2160 F   0  0  0  0  0  0  0  0  0  0  0  0
  -10.7400   15.5570   65.9490 O   0  0  0  0  0  0  0  0  0  0  0  0
  -10.4450   14.2760   65.3310 C   0  0  0  0  0  0  0  0  0  0  0  0
  -10.2570   13.2450   66.2900 O   0  0  0  0  0  0  0  0  0  0  0  0
   -9.8880   12.0540   65.6910 C   0  0  0  0  0  0  0  0  0  0  0  0
   -8.7820   11.3950   66.0690 C   0  0  0  0  0  0  0  0  0  0  0  0
  -10.7500   11.5090   64.6070 C   0  0  0  0  0  0  0  0  0  0  0  0
   -7.9270   11.8820   67.0270 O   0  0  0  0  0  0  0  0  0  0  0  0
  -11.8520   12.4780   64.2080 C   0  0  0  0  0  0  0  0  0  0  0  0
  -10.5750   10.4430   64.0510 O   0  0  0  0  0  0  0  0  0  0  0  0
  -11.6500   13.9630   64.4560 C   0  0  0  0  0  0  0  0  0  0  0  0
  -12.9040   12.0790   63.7370 O   0  0  0  0  0  0  0  0  0  0  0  0
  -12.3960   14.8180   63.9910 O   0  0  0  0  0  0  0  0  0  0  0  0
  -12.2500   15.3450   73.6830 C   0  0  0  0  0  0  0  0  0  0  0  0
  -12.0130   16.6750   74.1650 O   0  0  0  0  0  0  0  0  0  0  0  0
  -13.3440   16.1260   74.2020 O   0  0  0  0  0  0  0  0  0  0  0  0
  1 40  1  0  0  0  0
  1  2  2  0  0  0  0
  1  6  1  0  0  0  0
  2  3  1  0  0  0  0
  2 17  1  0  0  0  0
  3  4  1  0  0  0  0
  4  5  2  0  0  0  0
  4 15  1  0  0  0  0
  5  6  1  0  0  0  0
  5  7  1  0  0  0  0
  7  8  1  0  0  0  0
  7 13  1  0  0  0  0
  8  9  1  0  0  0  0
  9 10  2  0  0  0  0
  9 11  1  0  0  0  0
 11 12  1  0  0  0  0
 12 13  1  0  0  0  0
 12 16  1  0  0  0  0
 13 14  2  0  0  0  0
 14 15  1  0  0  0  0
 14 52  1  0  0  0  0
 17 18  2  0  0  0  0
 17 23  1  0  0  0  0
 18 19  1  0  0  0  0
 19 20  1  0  0  0  0
 19 21  2  0  0  0  0
 21 22  1  0  0  0  0
 22 23  2  0  0  0  0
 22 24  1  0  0  0  0
 23 25  1  0  0  0  0
 24 28  2  0  0  0  0
 24 34  1  0  0  0  0
 25 26  2  0  0  0  0
 26 27  1  0  0  0  0
 26 28  1  0  0  0  0
 27 29  2  0  0  0  0
 27 30  1  0  0  0  0
 28 33  1  0  0  0  0
 30 31  2  0  0  0  0
 30 32  1  0  0  0  0
 32 33  1  0  0  0  0
 32 35  1  0  0  0  0
 35 36  1  0  0  0  0
 35 37  1  0  0  0  0
 35 38  1  0  0  0  0
 37 38  1  0  0  0  0
 38 39  1  0  0  0  0
 40 41  1  0  0  0  0
 41 42  1  0  0  0  0
 41 49  1  0  0  0  0
 42 43  1  0  0  0  0
 43 44  2  0  0  0  0
 43 45  1  0  0  0  0
 44 46  1  0  0  0  0
 45 47  1  0  0  0  0
 45 48  2  0  0  0  0
 47 49  1  0  0  0  0
 47 50  2  0  0  0  0
 49 51  2  0  0  0  0
 52 53  1  0  0  0  0
 52 54  1  0  0  0  0
 53 54  1  0  0  0  0
M  CHG  2  15   1  19   1
M  END