
 OpenBabel03302114553D

 53 59  0  0  1  0  0  0  0  0999 V2000
  -11.3100   10.1360   68.4970 C   0  0  0  0  0  0  0  0  0  0  0  0
  -11.6890   10.4630   69.8000 C   0  0  0  0  0  0  0  0  0  0  0  0
  -11.5920    9.5530   70.8830 N   0  0  0  0  0  0  0  0  0  0  0  0
  -13.1430    9.3700   71.7360 Cl  0  0  0  0  0  0  0  0  0  0  0  0
  -11.1160    8.2370   70.7230 C   0  0  0  0  0  0  0  0  0  0  0  0
  -10.8740    7.7350   69.4390 C   0  0  0  0  0  0  0  0  0  0  0  0
  -10.5450    8.7370   68.3220 C   0  0  0  0  0  0  0  0  0  0  0  0
  -10.7280    6.3540   69.3260 C   0  0  0  0  0  0  0  0  0  0  0  0
  -10.7120    5.7390   68.1080 O   0  0  0  0  0  0  0  0  0  0  0  0
  -10.5120    5.5620   70.4580 C   0  0  0  0  0  0  0  0  0  0  0  0
  -10.5410    6.1170   71.7240 C   0  0  0  0  0  0  0  0  0  0  0  0
  -10.8980    7.4370   71.8700 C   0  0  0  0  0  0  0  0  0  0  0  0
  -10.1450    5.4130   72.8190 O   0  0  0  0  0  0  0  0  0  0  0  0
  -10.1200    4.2580   70.3300 O   0  0  0  0  0  0  0  0  0  0  0  0
  -11.3990   10.8800   67.2590 O   0  0  0  0  0  0  0  0  0  0  0  0
  -10.3720   11.7840   66.6360 C   0  0  0  0  0  0  0  0  0  0  0  0
   -9.8670   11.3930   65.3120 O   0  0  0  0  0  0  0  0  0  0  0  0
  -10.8330   11.2480   64.2510 C   0  0  0  0  0  0  0  0  0  0  0  0
  -11.4010   12.6170   63.9530 C   0  0  0  0  0  0  0  0  0  0  0  0
  -11.8010   13.3420   65.2430 C   0  0  0  0  0  0  0  0  0  0  0  0
  -12.5440   12.4490   63.1000 O   0  0  0  0  0  0  0  0  0  0  0  0
  -10.8220   13.2800   66.4240 C   0  0  0  0  0  0  0  0  0  0  0  0
  -12.0700   14.7260   64.9800 O   0  0  0  0  0  0  0  0  0  0  0  0
   -9.6520   14.1350   66.2170 O   0  0  0  0  0  0  0  0  0  0  0  0
   -9.8900   15.4160   65.5800 C   0  0  0  0  0  0  0  0  0  0  0  0
  -10.8180   15.3140   64.4830 O   0  0  0  0  0  0  0  0  0  0  0  0
  -10.2060   10.7320   62.9180 C   0  0  0  0  0  0  0  0  0  0  0  0
   -9.1020   11.5590   62.5290 O   0  0  0  0  0  0  0  0  0  0  0  0
  -10.1150   16.6210   66.5210 C   0  0  0  0  0  0  0  0  0  0  0  0
  -10.1560   17.9530   66.0350 C   0  0  0  0  0  0  0  0  0  0  0  0
  -10.2230   19.0380   66.9270 C   0  0  0  0  0  0  0  0  0  0  0  0
  -10.1160   20.3410   66.5210 O   0  0  0  0  0  0  0  0  0  0  0  0
  -10.3770   18.8220   68.2880 C   0  0  0  0  0  0  0  0  0  0  0  0
  -10.4950   17.5260   68.7620 C   0  0  0  0  0  0  0  0  0  0  0  0
  -10.4160   19.8640   69.1760 O   0  0  0  0  0  0  0  0  0  0  0  0
  -10.3600   16.4350   67.8990 C   0  0  0  0  0  0  0  0  0  0  0  0
  -10.7320   17.3180   70.0910 O   0  0  0  0  0  0  0  0  0  0  0  0
  -11.9680   11.8420   70.3120 C   0  0  0  0  0  0  0  0  0  0  0  0
  -11.6040   13.0850   69.7860 C   0  0  0  0  0  0  0  0  0  0  0  0
  -11.9960   14.3350   70.3020 C   0  0  0  0  0  0  0  0  0  0  0  0
  -12.8980   14.3340   71.3530 C   0  0  0  0  0  0  0  0  0  0  0  0
  -13.3270   13.1530   71.7900 C   0  0  0  0  0  0  0  0  0  0  0  0
  -13.4990   15.4550   71.8220 O   0  0  0  0  0  0  0  0  0  0  0  0
  -12.9540   11.9540   71.2740 C   0  0  0  0  0  0  0  0  0  0  0  0
  -14.3370   13.1900   72.6830 O   0  0  0  0  0  0  0  0  0  0  0  0
   -8.9460    8.9180   68.2020 C   0  0  0  0  0  0  0  0  0  0  0  0
   -8.3160   10.0440   69.0590 C   0  0  0  0  0  0  0  0  0  0  0  0
   -7.9220    9.3840   70.3750 C   0  0  0  0  0  0  0  0  0  0  0  0
   -7.3620    8.0290   69.9600 C   0  0  0  0  0  0  0  0  0  0  0  0
   -6.9820   10.1490   71.1140 O   0  0  0  0  0  0  0  0  0  0  0  0
   -8.0740    7.6870   68.6250 C   0  0  0  0  0  0  0  0  0  0  0  0
   -7.6040    7.0250   70.9490 O   0  0  0  0  0  0  0  0  0  0  0  0
   -7.0490    7.4820   67.6380 O   0  0  0  0  0  0  0  0  0  0  0  0
  1 15  1  0  0  0  0
  1  2  2  0  0  0  0
  1  7  1  0  0  0  0
  2 38  1  0  0  0  0
  2  3  1  0  0  0  0
  3  4  1  0  0  0  0
  3  5  1  0  0  0  0
  5  6  2  0  0  0  0
  5 12  1  0  0  0  0
  6  7  1  0  0  0  0
  6  8  1  0  0  0  0
  7 46  1  0  0  0  0
  8  9  1  0  0  0  0
  8 10  2  0  0  0  0
 10 11  1  0  0  0  0
 10 14  1  0  0  0  0
 11 12  2  0  0  0  0
 11 13  1  0  0  0  0
 15 16  1  0  0  0  0
 16 17  1  0  0  0  0
 16 22  1  0  0  0  0
 17 18  1  0  0  0  0
 18 19  1  0  0  0  0
 18 27  1  0  0  0  0
 19 20  1  0  0  0  0
 19 21  1  0  0  0  0
 20 22  1  0  0  0  0
 20 23  1  0  0  0  0
 22 24  1  0  0  0  0
 23 26  1  0  0  0  0
 24 25  1  0  0  0  0
 25 26  1  0  0  0  0
 25 29  1  0  0  0  0
 27 28  1  0  0  0  0
 29 30  2  0  0  0  0
 29 36  1  0  0  0  0
 30 31  1  0  0  0  0
 31 32  1  0  0  0  0
 31 33  2  0  0  0  0
 33 34  1  0  0  0  0
 33 35  1  0  0  0  0
 34 36  2  0  0  0  0
 34 37  1  0  0  0  0
 38 39  2  0  0  0  0
 38 44  1  0  0  0  0
 39 40  1  0  0  0  0
 40 41  2  0  0  0  0
 41 42  1  0  0  0  0
 41 43  1  0  0  0  0
 42 44  2  0  0  0  0
 42 45  1  0  0  0  0
 46 47  1  0  0  0  0
 46 51  1  0  0  0  0
 47 48  1  0  0  0  0
 48 49  1  0  0  0  0
 48 50  1  0  0  0  0
 49 51  1  0  0  0  0
 49 52  1  0  0  0  0
 51 53  1  0  0  0  0
M  END
