
 OpenBabel10242013313D

 51 58  0  0  1  0  0  0  0  0999 V2000
  -10.7420   15.7080   67.2470 C   0  0  0  0  0  0  0  0  0  0  0  0
  -10.6000   16.8710   67.9290 C   0  0  0  0  0  0  0  0  0  0  0  0
  -11.0330   17.0390   69.2490 O   0  0  0  0  0  0  0  0  0  0  0  0
  -11.5530   15.9550   69.9440 C   0  0  0  0  0  0  0  0  0  0  0  0
  -11.6780   14.7520   69.3690 C   0  0  0  0  0  0  0  0  0  0  0  0
  -11.3430   14.5070   67.9440 C   0  0  0  0  0  0  0  0  0  0  0  0
  -12.2020   13.6150   70.1790 C   0  0  0  0  0  0  0  0  0  0  0  0
  -12.2890   12.4370   69.6510 N   0  0  0  0  0  0  0  0  0  0  0  0
  -12.7660   11.3890   70.4080 C   0  0  0  0  0  0  0  0  0  0  0  0
  -12.8030   10.2780   69.8960 O   0  0  0  0  0  0  0  0  0  0  0  0
  -13.2020   11.5330   71.7090 N   0  0  0  0  0  0  0  0  0  0  0  0
  -13.1260   12.6940   72.2650 C   0  0  0  0  0  0  0  0  0  0  0  0
  -12.6040   13.8850   71.5810 C   0  0  0  0  0  0  0  0  0  0  0  0
  -12.4690   15.1430   72.0400 C   0  0  0  0  0  0  0  0  0  0  0  0
  -11.9430   16.1510   71.2410 N   0  0  0  0  0  0  0  0  0  0  0  0
   -9.9510   18.0840   67.3840 C   0  0  0  0  0  0  0  0  0  0  0  0
  -10.6640   18.7030   66.4170 N   0  0  0  0  0  0  0  0  0  0  0  0
  -10.0970   19.7800   65.8630 C   0  0  0  0  0  0  0  0  0  0  0  0
   -8.9050   20.2980   66.1840 N   0  0  0  0  0  0  0  0  0  0  0  0
   -8.2050   19.6690   67.1310 C   0  0  0  0  0  0  0  0  0  0  0  0
   -8.6680   18.5090   67.7740 C   0  0  0  0  0  0  0  0  0  0  0  0
   -6.9600   20.1870   67.4780 C   0  0  0  0  0  0  0  0  0  0  0  0
   -7.8260   17.8570   68.7080 C   0  0  0  0  0  0  0  0  0  0  0  0
   -6.5590   18.3740   68.9950 C   0  0  0  0  0  0  0  0  0  0  0  0
   -6.1390   19.5670   68.4200 C   0  0  0  0  0  0  0  0  0  0  0  0
   -5.6360   17.6360   69.8660 C   0  0  0  0  0  0  0  0  0  0  0  0
   -4.9530   20.1930   68.6960 O   0  0  0  0  0  0  0  0  0  0  0  0
   -4.2430   19.7420   69.8590 C   0  0  0  0  0  0  0  0  0  0  0  0
   -4.2640   18.2450   70.0330 C   0  0  0  0  0  0  0  0  0  0  0  0
   -3.2840   17.5570   70.2820 O   0  0  0  0  0  0  0  0  0  0  0  0
   -5.9330   16.5730   70.3880 O   0  0  0  0  0  0  0  0  0  0  0  0
   -4.7360   20.4320   71.0920 C   0  0  0  0  0  0  0  0  0  0  0  0
   -6.1710   20.4830   71.2800 O   0  0  0  0  0  0  0  0  0  0  0  0
   -3.9730   20.1430   72.2660 O   0  0  0  0  0  0  0  0  0  0  0  0
   -3.9670   21.4240   71.8440 C   0  0  0  0  0  0  0  0  0  0  0  0
   -4.3370   22.4250   72.4120 O   0  0  0  0  0  0  0  0  0  0  0  0
  -10.3350   15.5860   65.9170 O   0  0  0  0  0  0  0  0  0  0  0  0
  -10.0800   14.2640   65.3990 C   0  0  0  0  0  0  0  0  0  0  0  0
   -9.6000   13.3970   66.4270 O   0  0  0  0  0  0  0  0  0  0  0  0
   -9.3820   12.0700   66.1140 C   0  0  0  0  0  0  0  0  0  0  0  0
   -8.4370   11.3620   66.7460 C   0  0  0  0  0  0  0  0  0  0  0  0
  -10.2560   11.3500   65.1510 C   0  0  0  0  0  0  0  0  0  0  0  0
   -7.5970   11.9140   67.6790 O   0  0  0  0  0  0  0  0  0  0  0  0
  -11.1320   12.2650   64.3280 C   0  0  0  0  0  0  0  0  0  0  0  0
  -10.2920   10.1370   65.0250 O   0  0  0  0  0  0  0  0  0  0  0  0
  -11.3470   13.6750   64.8030 C   0  0  0  0  0  0  0  0  0  0  0  0
  -11.5920   11.8970   63.2590 O   0  0  0  0  0  0  0  0  0  0  0  0
  -12.4370   14.2150   64.6870 O   0  0  0  0  0  0  0  0  0  0  0  0
  -12.8860   15.5070   73.4230 C   0  0  0  0  0  0  0  0  0  0  0  0
  -12.3180   15.2440   74.4650 O   0  0  0  0  0  0  0  0  0  0  0  0
  -14.0390   16.2040   73.4090 O   0  0  0  0  0  0  0  0  0  0  0  0
  1 37  1  0  0  0  0
  1  2  2  0  0  0  0
  1  6  1  0  0  0  0
  2  3  1  0  0  0  0
  2 16  1  0  0  0  0
  3  4  1  0  0  0  0
  4  5  2  0  0  0  0
  4 15  1  0  0  0  0
  5  6  1  0  0  0  0
  5  7  1  0  0  0  0
  7  8  2  0  0  0  0
  7 13  1  0  0  0  0
  8  9  1  0  0  0  0
  9 10  2  0  0  0  0
  9 11  1  0  0  0  0
 11 12  2  0  0  0  0
 12 13  1  0  0  0  0
 13 14  2  0  0  0  0
 14 15  1  0  0  0  0
 14 49  1  0  0  0  0
 16 17  2  0  0  0  0
 16 21  1  0  0  0  0
 17 18  1  0  0  0  0
 18 19  2  0  0  0  0
 19 20  1  0  0  0  0
 20 21  2  0  0  0  0
 20 22  1  0  0  0  0
 21 23  1  0  0  0  0
 22 25  2  0  0  0  0
 23 24  2  0  0  0  0
 24 25  1  0  0  0  0
 24 26  1  0  0  0  0
 25 27  1  0  0  0  0
 26 29  1  0  0  0  0
 26 31  2  0  0  0  0
 27 28  1  0  0  0  0
 28 29  1  0  0  0  0
 28 32  1  0  0  0  0
 29 30  2  0  0  0  0
 32 33  1  0  0  0  0
 32 34  1  0  0  0  0
 32 35  1  0  0  0  0
 34 35  1  0  0  0  0
 35 36  2  0  0  0  0
 37 38  1  0  0  0  0
 38 39  1  0  0  0  0
 38 46  1  0  0  0  0
 39 40  1  0  0  0  0
 40 41  2  0  0  0  0
 40 42  1  0  0  0  0
 41 43  1  0  0  0  0
 42 44  1  0  0  0  0
 42 45  2  0  0  0  0
 44 46  1  0  0  0  0
 44 47  2  0  0  0  0
 46 48  2  0  0  0  0
 49 50  2  0  0  0  0
 49 51  1  0  0  0  0
M  END
