
 OpenBabel09212020153D

 82 92  0  0  1  0  0  0  0  0999 V2000
   -9.8660   10.5140   67.6780 C   0  0  0  0  0  0  0  0  0  0  0  0
  -10.9430   11.3550   67.6500 C   0  0  0  0  0  0  0  0  0  0  0  0
  -11.9340   11.3110   68.6400 O   0  0  0  0  0  0  0  0  0  0  0  0
  -11.7870   10.5070   69.7500 C   0  0  0  0  0  0  0  0  0  0  0  0
  -10.5960    9.8650   70.0220 C   0  0  0  0  0  0  0  0  0  0  0  0
   -9.4940    9.9190   69.0160 C   0  0  0  0  0  0  0  0  0  0  0  0
   -8.4170   10.6800   69.5660 O   0  0  0  0  0  0  0  0  0  0  0  0
  -10.5410    9.0740   71.1780 C   0  0  0  0  0  0  0  0  0  0  0  0
   -9.3280    8.5630   71.6560 N   0  0  0  0  0  0  0  0  0  0  0  0
   -9.2050    7.7610   72.7500 C   0  0  0  0  0  0  0  0  0  0  0  0
   -8.1140    7.3930   73.1740 O   0  0  0  0  0  0  0  0  0  0  0  0
  -10.3510    7.3770   73.3650 N   0  0  0  0  0  0  0  0  0  0  0  0
  -11.6930    7.6780   72.9040 C   0  0  0  0  0  0  0  0  0  0  0  0
  -11.6980    8.7840   71.8900 C   0  0  0  0  0  0  0  0  0  0  0  0
  -12.8150    9.5160   71.5480 C   0  0  0  0  0  0  0  0  0  0  0  0
  -12.8910   10.3920   70.5300 N   0  0  0  0  0  0  0  0  0  0  0  0
  -13.9590    9.4140   72.2690 O   0  0  0  0  0  0  0  0  0  0  0  0
  -12.3120    6.3970   72.3300 C   0  0  0  0  0  0  0  0  0  0  0  0
   -8.9770   10.3140   66.6060 O   0  0  0  0  0  0  0  0  0  0  0  0
   -8.2210    9.0540   66.5330 C   0  0  0  0  0  0  0  0  0  0  0  0
   -6.7090    9.3610   66.2380 C   0  0  0  0  0  0  0  0  0  0  0  0
   -6.4280    9.0840   64.7290 C   0  0  0  0  0  0  0  0  0  0  0  0
   -6.5470    7.5720   64.5280 C   0  0  0  0  0  0  0  0  0  0  0  0
   -7.3770    9.7510   63.8530 O   0  0  0  0  0  0  0  0  0  0  0  0
   -7.9590    7.0970   65.0000 C   0  0  0  0  0  0  0  0  0  0  0  0
   -6.2300    7.2380   63.1680 O   0  0  0  0  0  0  0  0  0  0  0  0
   -8.7630    8.1760   65.5230 O   0  0  0  0  0  0  0  0  0  0  0  0
   -6.9200    8.0040   62.2460 C   0  0  0  0  0  0  0  0  0  0  0  0
   -7.5700    9.1280   62.6100 C   0  0  0  0  0  0  0  0  0  0  0  0
   -6.8930    7.4710   60.8410 C   0  0  0  0  0  0  0  0  0  0  0  0
   -8.6450    9.6880   61.7240 C   0  0  0  0  0  0  0  0  0  0  0  0
   -9.0290    8.8210   60.5350 C   0  0  0  0  0  0  0  0  0  0  0  0
   -9.2260   10.7300   61.9420 O   0  0  0  0  0  0  0  0  0  0  0  0
   -7.8860    8.0940   59.8830 C   0  0  0  0  0  0  0  0  0  0  0  0
  -10.1720    8.6090   60.2120 O   0  0  0  0  0  0  0  0  0  0  0  0
   -7.7390    8.0800   58.6890 O   0  0  0  0  0  0  0  0  0  0  0  0
   -6.1240    6.6060   60.4760 O   0  0  0  0  0  0  0  0  0  0  0  0
   -5.7670    8.5270   67.0740 N   0  0  0  0  0  0  0  0  0  0  0  0
   -5.1610    8.9060   68.2480 C   0  0  0  0  0  0  0  0  0  0  0  0
   -4.2550    7.8210   68.8070 C   0  0  0  0  0  0  0  0  0  0  0  0
   -5.2880   10.0100   68.7540 O   0  0  0  0  0  0  0  0  0  0  0  0
   -7.9290    5.9310   65.9820 C   0  0  0  0  0  0  0  0  0  0  0  0
   -9.4090    4.9220   65.9120 P   0  0  0  0  0  0  0  0  0  0  0  0
   -9.5880    4.2300   64.5970 O   0  0  0  0  0  0  0  0  0  0  0  0
  -10.6500    5.8800   66.2350 O   0  0  0  0  0  0  0  0  0  0  0  0
   -9.3980    3.9520   67.1960 O   0  0  0  0  0  0  0  0  0  0  0  0
   -8.7740    4.3420   68.4390 C   0  0  0  0  0  0  0  0  0  0  0  0
   -9.8330    4.4050   69.5650 C   0  0  0  0  0  0  0  0  0  0  0  0
   -9.2570    4.5360   71.0040 C   0  0  0  0  0  0  0  0  0  0  0  0
  -10.6860    5.5450   69.3310 O   0  0  0  0  0  0  0  0  0  0  0  0
   -7.7780    4.1370   71.1290 C   0  0  0  0  0  0  0  0  0  0  0  0
  -10.0520    3.7100   71.8750 O   0  0  0  0  0  0  0  0  0  0  0  0
   -7.4900    2.9490   70.2120 C   0  0  0  0  0  0  0  0  0  0  0  0
   -6.9440    5.2630   70.8330 O   0  0  0  0  0  0  0  0  0  0  0  0
   -7.6080    3.3780   68.7490 C   0  0  0  0  0  0  0  0  0  0  0  0
   -8.4010    1.8800   70.4960 O   0  0  0  0  0  0  0  0  0  0  0  0
   -6.3900    4.0590   68.3850 O   0  0  0  0  0  0  0  0  0  0  0  0
  -11.2410   12.3740   66.5770 C   0  0  0  0  0  0  0  0  0  0  0  0
  -12.0770   11.8790   65.6300 N   0  0  0  0  0  0  0  0  0  0  0  0
  -12.4390   12.7060   64.6590 C   0  0  0  0  0  0  0  0  0  0  0  0
  -13.2140   12.1280   63.7010 O   0  0  0  0  0  0  0  0  0  0  0  0
  -12.0890   14.0350   64.5510 C   0  0  0  0  0  0  0  0  0  0  0  0
  -11.2140   14.6060   65.4970 C   0  0  0  0  0  0  0  0  0  0  0  0
  -12.6110   14.7540   63.4990 O   0  0  0  0  0  0  0  0  0  0  0  0
  -10.7070   13.7420   66.5250 C   0  0  0  0  0  0  0  0  0  0  0  0
  -10.8320   15.9960   65.4440 C   0  0  0  0  0  0  0  0  0  0  0  0
   -9.6890   14.3320   67.3570 C   0  0  0  0  0  0  0  0  0  0  0  0
   -8.9650   13.4990   68.1830 O   0  0  0  0  0  0  0  0  0  0  0  0
   -9.3090   15.6940   67.2850 C   0  0  0  0  0  0  0  0  0  0  0  0
   -9.8860   16.5170   66.3410 C   0  0  0  0  0  0  0  0  0  0  0  0
   -8.2720   16.2700   68.1670 C   0  0  0  0  0  0  0  0  0  0  0  0
   -9.5470   17.8460   66.2030 O   0  0  0  0  0  0  0  0  0  0  0  0
   -8.5290   18.3620   66.9790 C   0  0  0  0  0  0  0  0  0  0  0  0
   -7.8750   17.6700   67.9270 C   0  0  0  0  0  0  0  0  0  0  0  0
   -8.1940   19.6660   66.7450 N   0  0  0  0  0  0  0  0  0  0  0  0
   -6.7740   18.3720   68.6720 C   0  0  0  0  0  0  0  0  0  0  0  0
   -6.1040   17.7710   69.5070 O   0  0  0  0  0  0  0  0  0  0  0  0
   -6.5210   19.7060   68.3910 N   0  0  0  0  0  0  0  0  0  0  0  0
   -7.2240   20.2500   67.4680 C   0  0  0  0  0  0  0  0  0  0  0  0
   -7.0060   21.5300   67.1610 O   0  0  0  0  0  0  0  0  0  0  0  0
   -7.8000   15.5700   69.0540 O   0  0  0  0  0  0  0  0  0  0  0  0
  -11.2220   16.8210   64.3560 N   0  0  0  0  0  0  0  0  0  0  0  0
  1 19  1  0  0  0  0
  1  2  2  0  0  0  0
  1  6  1  0  0  0  0
  2  3  1  0  0  0  0
  2 58  1  0  0  0  0
  3  4  1  0  0  0  0
  4  5  2  0  0  0  0
  4 16  1  0  0  0  0
  5  6  1  0  0  0  0
  5  8  1  0  0  0  0
  6  7  1  0  0  0  0
  8  9  1  0  0  0  0
  8 14  2  0  0  0  0
  9 10  1  0  0  0  0
 10 11  2  0  0  0  0
 10 12  1  0  0  0  0
 12 13  1  0  0  0  0
 13 14  1  0  0  0  0
 13 18  1  0  0  0  0
 14 15  1  0  0  0  0
 15 16  2  0  0  0  0
 15 17  1  0  0  0  0
 19 20  1  0  0  0  0
 20 21  1  0  0  0  0
 20 27  1  0  0  0  0
 21 22  1  0  0  0  0
 21 38  1  0  0  0  0
 22 23  1  0  0  0  0
 22 24  1  0  0  0  0
 23 25  1  0  0  0  0
 23 26  1  0  0  0  0
 24 29  1  0  0  0  0
 25 27  1  0  0  0  0
 25 42  1  0  0  0  0
 26 28  1  0  0  0  0
 28 29  2  0  0  0  0
 28 30  1  0  0  0  0
 29 31  1  0  0  0  0
 30 34  1  0  0  0  0
 30 37  2  0  0  0  0
 31 32  1  0  0  0  0
 31 33  2  0  0  0  0
 32 34  1  0  0  0  0
 32 35  2  0  0  0  0
 34 36  2  0  0  0  0
 38 39  1  0  0  0  0
 39 40  1  0  0  0  0
 39 41  2  0  0  0  0
 42 43  1  0  0  0  0
 43 44  2  0  0  0  0
 43 46  1  0  0  0  0
 43 45  1  0  0  0  0
 46 47  1  0  0  0  0
 47 48  1  0  0  0  0
 47 55  1  0  0  0  0
 48 49  1  0  0  0  0
 48 50  1  0  0  0  0
 49 51  1  0  0  0  0
 49 52  1  0  0  0  0
 51 53  1  0  0  0  0
 51 54  1  0  0  0  0
 53 55  1  0  0  0  0
 53 56  1  0  0  0  0
 55 57  1  0  0  0  0
 58 59  2  0  0  0  0
 58 65  1  0  0  0  0
 59 60  1  0  0  0  0
 60 61  1  0  0  0  0
 60 62  2  0  0  0  0
 62 63  1  0  0  0  0
 62 64  1  0  0  0  0
 63 65  2  0  0  0  0
 63 66  1  0  0  0  0
 65 67  1  0  0  0  0
 66 70  2  0  0  0  0
 66 82  1  0  0  0  0
 67 68  1  0  0  0  0
 67 69  2  0  0  0  0
 69 70  1  0  0  0  0
 69 71  1  0  0  0  0
 70 72  1  0  0  0  0
 71 74  1  0  0  0  0
 71 81  2  0  0  0  0
 72 73  1  0  0  0  0
 73 74  2  0  0  0  0
 73 75  1  0  0  0  0
 74 76  1  0  0  0  0
 75 79  1  0  0  0  0
 76 77  2  0  0  0  0
 76 78  1  0  0  0  0
 78 79  2  0  0  0  0
 79 80  1  0  0  0  0
M  END
