
 OpenBabel11252003093D

 54 63  0  0  1  0  0  0  0  0999 V2000
  -10.9390   15.6480   66.9080 C   0  0  0  0  0  0  0  0  0  0  0  0
  -10.6150   16.7600   67.6150 C   0  0  0  0  0  0  0  0  0  0  0  0
  -10.9840   16.8960   68.9630 O   0  0  0  0  0  0  0  0  0  0  0  0
  -11.6590   15.8700   69.6310 C   0  0  0  0  0  0  0  0  0  0  0  0
  -12.0090   14.7390   68.9930 C   0  0  0  0  0  0  0  0  0  0  0  0
  -11.7570   14.5380   67.5260 C   0  0  0  0  0  0  0  0  0  0  0  0
  -12.6450   13.5820   69.7220 C   0  0  0  0  0  0  0  0  0  0  0  0
  -11.7610   12.4840   69.5910 O   0  0  0  0  0  0  0  0  0  0  0  0
  -12.0420   11.3480   70.2890 C   0  0  0  0  0  0  0  0  0  0  0  0
  -11.4940   10.2970   70.0020 O   0  0  0  0  0  0  0  0  0  0  0  0
  -12.9360   11.4560   71.3020 O   0  0  0  0  0  0  0  0  0  0  0  0
  -13.2970   12.6430   71.8120 C   0  0  0  0  0  0  0  0  0  0  0  0
  -14.1000   12.7520   72.7280 O   0  0  0  0  0  0  0  0  0  0  0  0
  -12.7570   13.8390   71.1680 C   0  0  0  0  0  0  0  0  0  0  0  0
  -12.4150   15.0030   71.7680 C   0  0  0  0  0  0  0  0  0  0  0  0
  -11.9240   16.0470   70.9770 O   0  0  0  0  0  0  0  0  0  0  0  0
   -9.8430   17.9330   67.0480 C   0  0  0  0  0  0  0  0  0  0  0  0
  -10.4890   18.8200   66.1830 C   0  0  0  0  0  0  0  0  0  0  0  0
   -9.8720   19.8880   65.6690 N   0  0  0  0  0  0  0  0  0  0  0  0
  -10.5700   20.7310   64.8820 F   0  0  0  0  0  0  0  0  0  0  0  0
   -8.5990   20.1390   65.8860 N   0  0  0  0  0  0  0  0  0  0  0  0
   -7.8880   19.3270   66.6700 C   0  0  0  0  0  0  0  0  0  0  0  0
   -8.4660   18.2030   67.3020 C   0  0  0  0  0  0  0  0  0  0  0  0
   -6.5310   19.6080   66.8720 C   0  0  0  0  0  0  0  0  0  0  0  0
   -7.6230   17.4470   68.1560 C   0  0  0  0  0  0  0  0  0  0  0  0
   -6.2660   17.7640   68.3410 C   0  0  0  0  0  0  0  0  0  0  0  0
   -5.7050   18.8370   67.6910 C   0  0  0  0  0  0  0  0  0  0  0  0
   -5.4570   16.9590   69.2570 C   0  0  0  0  0  0  0  0  0  0  0  0
   -4.4020   19.2160   67.8250 O   0  0  0  0  0  0  0  0  0  0  0  0
   -3.5010   18.3360   68.5490 C   0  0  0  0  0  0  0  0  0  0  0  0
   -4.0690   17.4560   69.5850 C   0  0  0  0  0  0  0  0  0  0  0  0
   -2.4340   17.7910   67.8170 O   0  0  0  0  0  0  0  0  0  0  0  0
   -2.1050   18.8280   68.7990 C   0  0  0  0  0  0  0  0  0  0  0  0
   -3.4960   17.1360   70.6110 O   0  0  0  0  0  0  0  0  0  0  0  0
   -2.0550   20.2280   68.3130 O   0  0  0  0  0  0  0  0  0  0  0  0
   -0.9580   19.5240   68.3070 C   0  0  0  0  0  0  0  0  0  0  0  0
    0.1570   19.7360   68.7660 O   0  0  0  0  0  0  0  0  0  0  0  0
   -5.9230   15.9320   69.7260 O   0  0  0  0  0  0  0  0  0  0  0  0
   -6.0000   20.6720   66.2460 F   0  0  0  0  0  0  0  0  0  0  0  0
  -10.6020   15.5320   65.5690 O   0  0  0  0  0  0  0  0  0  0  0  0
  -10.3840   14.2190   64.9940 C   0  0  0  0  0  0  0  0  0  0  0  0
   -9.9940   13.2920   65.9890 O   0  0  0  0  0  0  0  0  0  0  0  0
   -9.8360   11.9960   65.5230 C   0  0  0  0  0  0  0  0  0  0  0  0
   -8.9350   11.1760   66.0770 C   0  0  0  0  0  0  0  0  0  0  0  0
  -10.6700   11.4580   64.4060 C   0  0  0  0  0  0  0  0  0  0  0  0
   -8.1040   11.5640   67.0960 O   0  0  0  0  0  0  0  0  0  0  0  0
  -11.7730   12.3930   63.9530 C   0  0  0  0  0  0  0  0  0  0  0  0
  -10.4580   10.3990   63.8440 O   0  0  0  0  0  0  0  0  0  0  0  0
  -11.7060   13.8460   64.3500 C   0  0  0  0  0  0  0  0  0  0  0  0
  -12.6820   12.0120   63.2370 O   0  0  0  0  0  0  0  0  0  0  0  0
  -12.6000   14.6460   64.0900 O   0  0  0  0  0  0  0  0  0  0  0  0
  -12.4160   15.3070   73.2180 C   0  0  0  0  0  0  0  0  0  0  0  0
  -11.8560   16.5790   73.6400 N   0  0  0  0  0  0  0  0  0  0  0  0
  -13.2230   16.2610   73.9280 N   0  0  0  0  0  0  0  0  0  0  0  0
  1 40  1  0  0  0  0
  1  2  2  0  0  0  0
  1  6  1  0  0  0  0
  2  3  1  0  0  0  0
  2 17  1  0  0  0  0
  3  4  1  0  0  0  0
  4  5  2  0  0  0  0
  4 16  1  0  0  0  0
  5  6  1  0  0  0  0
  5  7  1  0  0  0  0
  7  8  1  0  0  0  0
  7 14  1  0  0  0  0
  8  9  1  0  0  0  0
  9 10  2  0  0  0  0
  9 11  1  0  0  0  0
 11 12  1  0  0  0  0
 12 13  2  0  0  0  0
 12 14  1  0  0  0  0
 14 15  2  0  0  0  0
 15 16  1  0  0  0  0
 15 52  1  0  0  0  0
 17 18  2  0  0  0  0
 17 23  1  0  0  0  0
 18 19  1  0  0  0  0
 19 20  1  0  0  0  0
 19 21  2  0  0  0  0
 21 22  1  0  0  0  0
 22 23  2  0  0  0  0
 22 24  1  0  0  0  0
 23 25  1  0  0  0  0
 24 27  2  0  0  0  0
 24 39  1  0  0  0  0
 25 26  2  0  0  0  0
 26 27  1  0  0  0  0
 26 28  1  0  0  0  0
 27 29  1  0  0  0  0
 28 31  1  0  0  0  0
 28 38  2  0  0  0  0
 29 30  1  0  0  0  0
 30 31  1  0  0  0  0
 30 32  1  0  0  0  0
 30 33  1  0  0  0  0
 31 34  2  0  0  0  0
 32 33  1  0  0  0  0
 33 35  1  0  0  0  0
 33 36  1  0  0  0  0
 35 36  1  0  0  0  0
 36 37  2  0  0  0  0
 40 41  1  0  0  0  0
 41 42  1  0  0  0  0
 41 49  1  0  0  0  0
 42 43  1  0  0  0  0
 43 44  2  0  0  0  0
 43 45  1  0  0  0  0
 44 46  1  0  0  0  0
 45 47  1  0  0  0  0
 45 48  2  0  0  0  0
 47 49  1  0  0  0  0
 47 50  2  0  0  0  0
 49 51  2  0  0  0  0
 52 53  1  0  0  0  0
 52 54  1  0  0  0  0
 53 54  1  0  0  0  0
M  CHG  2  16   1  19   1
M  END