
 OpenBabel11212014133D

 52 60  0  0  1  0  0  0  0  0999 V2000
  -10.2370   10.0770   65.9280 C   0  0  0  0  0  0  0  0  0  0  0  0
  -10.8850   11.1440   66.4440 C   0  0  0  0  0  0  0  0  0  0  0  0
  -11.2480   11.2410   67.7840 O   0  0  0  0  0  0  0  0  0  0  0  0
  -11.1180   10.1240   68.5910 C   0  0  0  0  0  0  0  0  0  0  0  0
  -10.4400    9.0340   68.1940 C   0  0  0  0  0  0  0  0  0  0  0  0
   -9.8020    8.9530   66.8430 C   0  0  0  0  0  0  0  0  0  0  0  0
  -10.4030    7.8050   69.0650 C   0  0  0  0  0  0  0  0  0  0  0  0
   -9.0500    7.4500   69.3160 O   0  0  0  0  0  0  0  0  0  0  0  0
   -8.8730    6.2790   69.9840 C   0  0  0  0  0  0  0  0  0  0  0  0
   -7.8340    5.6400   69.9150 O   0  0  0  0  0  0  0  0  0  0  0  0
   -9.9530    5.8380   70.6860 O   0  0  0  0  0  0  0  0  0  0  0  0
  -10.8830    6.7780   71.2520 C   0  0  0  0  0  0  0  0  0  0  0  0
  -11.0640    7.9730   70.3930 C   0  0  0  0  0  0  0  0  0  0  0  0
  -11.7100    9.1100   70.7310 C   0  0  0  0  0  0  0  0  0  0  0  0
  -11.7430   10.1500   69.8140 N   0  0  0  0  0  0  0  0  0  0  0  0
  -11.3350   12.2860   65.6330 C   0  0  0  0  0  0  0  0  0  0  0  0
  -12.4160   12.0130   64.8720 N   0  0  0  0  0  0  0  0  0  0  0  0
  -12.9300   12.9590   64.1470 N   0  0  0  0  0  0  0  0  0  0  0  0
  -12.4350   14.1760   64.1320 N   0  0  0  0  0  0  0  0  0  0  0  0
  -11.3610   14.4980   64.8700 C   0  0  0  0  0  0  0  0  0  0  0  0
  -10.7370   13.5460   65.6720 C   0  0  0  0  0  0  0  0  0  0  0  0
  -10.8460   15.8040   64.8730 C   0  0  0  0  0  0  0  0  0  0  0  0
   -9.6000   13.9110   66.4460 C   0  0  0  0  0  0  0  0  0  0  0  0
   -9.1170   15.2240   66.4270 C   0  0  0  0  0  0  0  0  0  0  0  0
   -7.9420   15.6050   67.2180 C   0  0  0  0  0  0  0  0  0  0  0  0
   -9.7560   16.1880   65.6630 C   0  0  0  0  0  0  0  0  0  0  0  0
   -7.3630   14.8130   67.9440 O   0  0  0  0  0  0  0  0  0  0  0  0
   -7.4930   17.0420   67.0990 C   0  0  0  0  0  0  0  0  0  0  0  0
   -6.3370   17.3650   67.3280 O   0  0  0  0  0  0  0  0  0  0  0  0
   -8.5970   17.9960   66.7130 C   0  0  0  0  0  0  0  0  0  0  0  0
   -9.4080   17.5140   65.6270 O   0  0  0  0  0  0  0  0  0  0  0  0
  -11.4500   16.7630   64.0880 O   0  0  0  0  0  0  0  0  0  0  0  0
   -9.4470   18.3770   67.8950 C   0  0  0  0  0  0  0  0  0  0  0  0
  -10.2640   17.3370   68.4750 O   0  0  0  0  0  0  0  0  0  0  0  0
   -8.8220   19.2310   68.8610 O   0  0  0  0  0  0  0  0  0  0  0  0
   -9.8300   19.7530   68.1530 C   0  0  0  0  0  0  0  0  0  0  0  0
   -9.8820   20.7450   67.4520 O   0  0  0  0  0  0  0  0  0  0  0  0
   -9.9430   10.0180   64.5730 O   0  0  0  0  0  0  0  0  0  0  0  0
   -8.6400   10.4490   64.1530 C   0  0  0  0  0  0  0  0  0  0  0  0
   -7.5690    9.6200   64.6070 O   0  0  0  0  0  0  0  0  0  0  0  0
   -7.5110    8.3340   64.0920 C   0  0  0  0  0  0  0  0  0  0  0  0
   -6.7850    7.3940   64.7090 C   0  0  0  0  0  0  0  0  0  0  0  0
   -8.1690    7.9530   62.8030 C   0  0  0  0  0  0  0  0  0  0  0  0
   -6.0830    7.6330   65.8630 O   0  0  0  0  0  0  0  0  0  0  0  0
   -8.8100    9.1100   62.0660 C   0  0  0  0  0  0  0  0  0  0  0  0
   -8.1580    6.8260   62.3330 O   0  0  0  0  0  0  0  0  0  0  0  0
   -8.6390   10.4820   62.6460 C   0  0  0  0  0  0  0  0  0  0  0  0
   -9.4560    8.9520   61.0440 O   0  0  0  0  0  0  0  0  0  0  0  0
   -8.4420   11.4630   61.9460 O   0  0  0  0  0  0  0  0  0  0  0  0
  -12.4000    9.3300   72.0240 C   0  0  0  0  0  0  0  0  0  0  0  0
  -13.3540   10.3890   72.2000 O   0  0  0  0  0  0  0  0  0  0  0  0
  -13.7910    9.0160   72.2140 O   0  0  0  0  0  0  0  0  0  0  0  0
  1 38  1  0  0  0  0
  1  2  2  0  0  0  0
  1  6  1  0  0  0  0
  2  3  1  0  0  0  0
  2 16  1  0  0  0  0
  3  4  1  0  0  0  0
  4  5  2  0  0  0  0
  4 15  1  0  0  0  0
  5  6  1  0  0  0  0
  5  7  1  0  0  0  0
  7  8  1  0  0  0  0
  7 13  1  0  0  0  0
  8  9  1  0  0  0  0
  9 10  2  0  0  0  0
  9 11  1  0  0  0  0
 11 12  1  0  0  0  0
 12 13  1  0  0  0  0
 13 14  2  0  0  0  0
 14 15  1  0  0  0  0
 14 50  1  0  0  0  0
 16 17  2  0  0  0  0
 16 21  1  0  0  0  0
 17 18  1  0  0  0  0
 18 19  2  0  0  0  0
 19 20  1  0  0  0  0
 20 21  2  0  0  0  0
 20 22  1  0  0  0  0
 21 23  1  0  0  0  0
 22 26  2  0  0  0  0
 22 32  1  0  0  0  0
 23 24  2  0  0  0  0
 24 25  1  0  0  0  0
 24 26  1  0  0  0  0
 25 27  2  0  0  0  0
 25 28  1  0  0  0  0
 26 31  1  0  0  0  0
 28 29  2  0  0  0  0
 28 30  1  0  0  0  0
 30 31  1  0  0  0  0
 30 33  1  0  0  0  0
 33 34  1  0  0  0  0
 33 35  1  0  0  0  0
 33 36  1  0  0  0  0
 35 36  1  0  0  0  0
 36 37  2  0  0  0  0
 38 39  1  0  0  0  0
 39 40  1  0  0  0  0
 39 47  1  0  0  0  0
 40 41  1  0  0  0  0
 41 42  2  0  0  0  0
 41 43  1  0  0  0  0
 42 44  1  0  0  0  0
 43 45  1  0  0  0  0
 43 46  2  0  0  0  0
 45 47  1  0  0  0  0
 45 48  2  0  0  0  0
 47 49  2  0  0  0  0
 50 51  1  0  0  0  0
 50 52  1  0  0  0  0
 51 52  1  0  0  0  0
M  END
