
 OpenBabel09212012363D

 50 57  0  0  1  0  0  0  0  0999 V2000
   -9.9280   15.5830   67.8770 C   0  0  0  0  0  0  0  0  0  0  0  0
  -10.1480   16.8140   68.3990 C   0  0  0  0  0  0  0  0  0  0  0  0
  -10.8850   17.0230   69.5760 O   0  0  0  0  0  0  0  0  0  0  0  0
  -11.4250   15.9460   70.2610 C   0  0  0  0  0  0  0  0  0  0  0  0
  -11.3020   14.6540   69.7920 C   0  0  0  0  0  0  0  0  0  0  0  0
  -10.5220   14.3880   68.5600 C   0  0  0  0  0  0  0  0  0  0  0  0
  -11.9290   13.6180   70.5000 C   0  0  0  0  0  0  0  0  0  0  0  0
  -11.8700   12.2900   70.0520 N   0  0  0  0  0  0  0  0  0  0  0  0
  -12.5960   11.2590   70.5830 C   0  0  0  0  0  0  0  0  0  0  0  0
  -12.5060   10.1190   70.1250 O   0  0  0  0  0  0  0  0  0  0  0  0
  -13.4440   11.5930   71.6150 N   0  0  0  0  0  0  0  0  0  0  0  0
  -13.1850   12.7480   72.4640 C   0  0  0  0  0  0  0  0  0  0  0  0
  -12.6140   13.8820   71.6740 C   0  0  0  0  0  0  0  0  0  0  0  0
  -12.6180   15.1990   72.0800 C   0  0  0  0  0  0  0  0  0  0  0  0
  -12.0690   16.2360   71.4130 N   0  0  0  0  0  0  0  0  0  0  0  0
  -13.1730   15.5530   73.2650 O   0  0  0  0  0  0  0  0  0  0  0  0
  -13.9810   10.4910   72.3280 O   0  0  0  0  0  0  0  0  0  0  0  0
   -9.7790   18.0990   67.7400 C   0  0  0  0  0  0  0  0  0  0  0  0
  -10.8700   18.7650   67.2690 N   0  0  0  0  0  0  0  0  0  0  0  0
  -10.7020   20.0260   66.8230 C   0  0  0  0  0  0  0  0  0  0  0  0
   -9.4990   20.7020   66.8580 C   0  0  0  0  0  0  0  0  0  0  0  0
   -8.3730   20.0420   67.3470 C   0  0  0  0  0  0  0  0  0  0  0  0
   -8.4800   18.6870   67.7610 C   0  0  0  0  0  0  0  0  0  0  0  0
   -7.1480   20.7350   67.4490 C   0  0  0  0  0  0  0  0  0  0  0  0
   -7.2820   18.0490   68.1610 C   0  0  0  0  0  0  0  0  0  0  0  0
   -6.0610   18.7540   68.2250 C   0  0  0  0  0  0  0  0  0  0  0  0
   -5.9990   20.1060   67.9250 C   0  0  0  0  0  0  0  0  0  0  0  0
   -4.8240   18.0440   68.5570 C   0  0  0  0  0  0  0  0  0  0  0  0
   -4.8850   20.8920   68.0240 O   0  0  0  0  0  0  0  0  0  0  0  0
   -3.7600   20.3600   68.7260 C   0  0  0  0  0  0  0  0  0  0  0  0
   -3.5610   18.8630   68.6880 C   0  0  0  0  0  0  0  0  0  0  0  0
   -2.4690   18.3190   68.7950 O   0  0  0  0  0  0  0  0  0  0  0  0
   -4.7960   16.8280   68.6780 O   0  0  0  0  0  0  0  0  0  0  0  0
   -3.7190   20.8670   70.1490 C   0  0  0  0  0  0  0  0  0  0  0  0
   -2.5790   21.7020   70.4830 O   0  0  0  0  0  0  0  0  0  0  0  0
   -4.9820   21.3240   70.6240 O   0  0  0  0  0  0  0  0  0  0  0  0
   -4.4150   20.2520   71.2590 C   0  0  0  0  0  0  0  0  0  0  0  0
   -4.1010   20.1190   72.4210 O   0  0  0  0  0  0  0  0  0  0  0  0
   -9.1180   15.3680   66.7680 O   0  0  0  0  0  0  0  0  0  0  0  0
   -9.5930   14.6040   65.6260 C   0  0  0  0  0  0  0  0  0  0  0  0
   -9.8530   13.2410   65.9040 O   0  0  0  0  0  0  0  0  0  0  0  0
  -10.4870   12.4740   64.8930 C   0  0  0  0  0  0  0  0  0  0  0  0
  -11.7540   13.0770   64.3230 C   0  0  0  0  0  0  0  0  0  0  0  0
  -11.8340   14.5810   64.4030 C   0  0  0  0  0  0  0  0  0  0  0  0
  -12.6150   12.4380   63.7310 O   0  0  0  0  0  0  0  0  0  0  0  0
  -10.6870   15.4040   64.9300 C   0  0  0  0  0  0  0  0  0  0  0  0
  -12.8290   15.1490   63.9710 O   0  0  0  0  0  0  0  0  0  0  0  0
  -10.6310   16.6050   64.6990 O   0  0  0  0  0  0  0  0  0  0  0  0
  -10.8270   11.0940   65.4930 C   0  0  0  0  0  0  0  0  0  0  0  0
  -11.5210   11.2480   66.7340 O   0  0  0  0  0  0  0  0  0  0  0  0
  1 39  1  0  0  0  0
  1  2  2  0  0  0  0
  1  6  1  0  0  0  0
  2  3  1  0  0  0  0
  2 18  1  0  0  0  0
  3  4  1  0  0  0  0
  4  5  2  0  0  0  0
  4 15  1  0  0  0  0
  5  6  1  0  0  0  0
  5  7  1  0  0  0  0
  7  8  1  0  0  0  0
  7 13  2  0  0  0  0
  8  9  1  0  0  0  0
  9 10  2  0  0  0  0
  9 11  1  0  0  0  0
 11 12  1  0  0  0  0
 11 17  1  0  0  0  0
 12 13  1  0  0  0  0
 13 14  1  0  0  0  0
 14 15  2  0  0  0  0
 14 16  1  0  0  0  0
 18 19  2  0  0  0  0
 18 23  1  0  0  0  0
 19 20  1  0  0  0  0
 20 21  2  0  0  0  0
 21 22  1  0  0  0  0
 22 23  2  0  0  0  0
 22 24  1  0  0  0  0
 23 25  1  0  0  0  0
 24 27  2  0  0  0  0
 25 26  2  0  0  0  0
 26 27  1  0  0  0  0
 26 28  1  0  0  0  0
 27 29  1  0  0  0  0
 28 31  1  0  0  0  0
 28 33  2  0  0  0  0
 29 30  1  0  0  0  0
 30 31  1  0  0  0  0
 30 34  1  0  0  0  0
 31 32  2  0  0  0  0
 34 35  1  0  0  0  0
 34 36  1  0  0  0  0
 34 37  1  0  0  0  0
 36 37  1  0  0  0  0
 37 38  2  0  0  0  0
 39 40  1  0  0  0  0
 40 41  1  0  0  0  0
 40 46  1  0  0  0  0
 41 42  1  0  0  0  0
 42 43  1  0  0  0  0
 42 49  1  0  0  0  0
 43 44  1  0  0  0  0
 43 45  2  0  0  0  0
 44 46  1  0  0  0  0
 44 47  2  0  0  0  0
 46 48  2  0  0  0  0
 49 50  1  0  0  0  0
M  END
