
 OpenBabel11242001523D

 53 62  0  0  1  0  0  0  0  0999 V2000
   -9.7050   15.2700   67.9020 C   0  0  0  0  0  0  0  0  0  0  0  0
   -9.7240   16.5240   68.3970 C   0  0  0  0  0  0  0  0  0  0  0  0
  -10.2630   16.8530   69.6290 O   0  0  0  0  0  0  0  0  0  0  0  0
  -11.0470   15.9200   70.2820 C   0  0  0  0  0  0  0  0  0  0  0  0
  -11.0610   14.6320   69.9060 C   0  0  0  0  0  0  0  0  0  0  0  0
  -10.2580   14.1340   68.7370 C   0  0  0  0  0  0  0  0  0  0  0  0
  -11.9400   13.7040   70.6280 C   0  0  0  0  0  0  0  0  0  0  0  0
  -11.9750   12.4360   70.1770 N   0  0  0  0  0  0  0  0  0  0  0  0
  -12.8390   11.6180   70.7920 C   0  0  0  0  0  0  0  0  0  0  0  0
  -12.9160   10.3610   70.3350 F   0  0  0  0  0  0  0  0  0  0  0  0
  -13.6530   11.9580   71.8010 N   0  0  0  0  0  0  0  0  0  0  0  0
  -13.5650   13.2270   72.2330 C   0  0  0  0  0  0  0  0  0  0  0  0
  -12.7110   14.1590   71.6840 C   0  0  0  0  0  0  0  0  0  0  0  0
  -12.6350   15.5740   72.1770 C   0  0  0  0  0  0  0  0  0  0  0  0
  -11.8240   16.4170   71.2980 N   0  0  0  0  0  0  0  0  0  0  0  0
   -9.3120   17.7040   67.6340 C   0  0  0  0  0  0  0  0  0  0  0  0
  -10.3040   18.3290   66.8930 C   0  0  0  0  0  0  0  0  0  0  0  0
  -10.0330   19.4330   66.1940 N   0  0  0  0  0  0  0  0  0  0  0  0
  -11.0190   20.0120   65.4860 F   0  0  0  0  0  0  0  0  0  0  0  0
   -8.8310   19.9830   66.1740 N   0  0  0  0  0  0  0  0  0  0  0  0
   -7.8260   19.4070   66.8530 C   0  0  0  0  0  0  0  0  0  0  0  0
   -8.0140   18.2410   67.6150 C   0  0  0  0  0  0  0  0  0  0  0  0
   -6.5440   19.9630   66.7990 C   0  0  0  0  0  0  0  0  0  0  0  0
   -6.9110   17.6700   68.2930 C   0  0  0  0  0  0  0  0  0  0  0  0
   -5.6350   18.2250   68.1650 C   0  0  0  0  0  0  0  0  0  0  0  0
   -5.4410   19.3850   67.4320 C   0  0  0  0  0  0  0  0  0  0  0  0
   -4.4730   17.5420   68.7470 C   0  0  0  0  0  0  0  0  0  0  0  0
   -4.2200   19.9900   67.2610 O   0  0  0  0  0  0  0  0  0  0  0  0
   -3.1060   19.4170   67.9960 C   0  0  0  0  0  0  0  0  0  0  0  0
   -3.1330   17.9640   68.1990 C   0  0  0  0  0  0  0  0  0  0  0  0
   -1.8470   19.9910   67.7480 O   0  0  0  0  0  0  0  0  0  0  0  0
   -2.4320   20.2100   69.0690 C   0  0  0  0  0  0  0  0  0  0  0  0
   -2.2320   17.1860   67.9500 O   0  0  0  0  0  0  0  0  0  0  0  0
   -3.2350   21.4300   69.2710 O   0  0  0  0  0  0  0  0  0  0  0  0
   -1.9420   21.4840   69.5230 C   0  0  0  0  0  0  0  0  0  0  0  0
   -1.3320   21.8210   70.5090 O   0  0  0  0  0  0  0  0  0  0  0  0
   -4.5870   16.6920   69.6120 O   0  0  0  0  0  0  0  0  0  0  0  0
   -6.3650   21.0850   66.0830 F   0  0  0  0  0  0  0  0  0  0  0  0
   -9.2410   15.0490   66.6170 O   0  0  0  0  0  0  0  0  0  0  0  0
   -9.8790   14.0660   65.7810 C   0  0  0  0  0  0  0  0  0  0  0  0
  -10.5620   13.0980   66.5720 O   0  0  0  0  0  0  0  0  0  0  0  0
  -11.1910   12.1240   65.8140 C   0  0  0  0  0  0  0  0  0  0  0  0
  -11.2140   10.8410   66.1960 C   0  0  0  0  0  0  0  0  0  0  0  0
  -11.8990   12.4820   64.5510 C   0  0  0  0  0  0  0  0  0  0  0  0
  -10.6070   10.3890   67.3370 O   0  0  0  0  0  0  0  0  0  0  0  0
  -11.8930   13.9670   64.2550 C   0  0  0  0  0  0  0  0  0  0  0  0
  -12.4120   11.6750   63.7970 O   0  0  0  0  0  0  0  0  0  0  0  0
  -10.8600   14.8450   64.9200 C   0  0  0  0  0  0  0  0  0  0  0  0
  -12.7210   14.4550   63.5040 O   0  0  0  0  0  0  0  0  0  0  0  0
  -10.8360   16.0570   64.7420 O   0  0  0  0  0  0  0  0  0  0  0  0
  -12.0700   15.6360   73.5800 C   0  0  0  0  0  0  0  0  0  0  0  0
  -12.3700   16.7850   74.4450 N   0  0  0  0  0  0  0  0  0  0  0  0
  -12.9140   15.5090   74.7620 N   0  0  0  0  0  0  0  0  0  0  0  0
  1 39  1  0  0  0  0
  1  2  2  0  0  0  0
  1  6  1  0  0  0  0
  2  3  1  0  0  0  0
  2 16  1  0  0  0  0
  3  4  1  0  0  0  0
  4  5  2  0  0  0  0
  4 15  1  0  0  0  0
  5  6  1  0  0  0  0
  5  7  1  0  0  0  0
  7  8  2  0  0  0  0
  7 13  1  0  0  0  0
  8  9  1  0  0  0  0
  9 10  1  0  0  0  0
  9 11  2  0  0  0  0
 11 12  1  0  0  0  0
 12 13  2  0  0  0  0
 13 14  1  0  0  0  0
 14 15  1  0  0  0  0
 14 51  1  0  0  0  0
 16 17  2  0  0  0  0
 16 22  1  0  0  0  0
 17 18  1  0  0  0  0
 18 19  1  0  0  0  0
 18 20  2  0  0  0  0
 20 21  1  0  0  0  0
 21 22  2  0  0  0  0
 21 23  1  0  0  0  0
 22 24  1  0  0  0  0
 23 26  2  0  0  0  0
 23 38  1  0  0  0  0
 24 25  2  0  0  0  0
 25 26  1  0  0  0  0
 25 27  1  0  0  0  0
 26 28  1  0  0  0  0
 27 30  1  0  0  0  0
 27 37  2  0  0  0  0
 28 29  1  0  0  0  0
 29 30  1  0  0  0  0
 29 31  1  0  0  0  0
 29 32  1  0  0  0  0
 30 33  2  0  0  0  0
 31 32  1  0  0  0  0
 32 34  1  0  0  0  0
 32 35  1  0  0  0  0
 34 35  1  0  0  0  0
 35 36  2  0  0  0  0
 39 40  1  0  0  0  0
 40 41  1  0  0  0  0
 40 48  1  0  0  0  0
 41 42  1  0  0  0  0
 42 43  2  0  0  0  0
 42 44  1  0  0  0  0
 43 45  1  0  0  0  0
 44 46  1  0  0  0  0
 44 47  2  0  0  0  0
 46 48  1  0  0  0  0
 46 49  2  0  0  0  0
 48 50  2  0  0  0  0
 51 52  1  0  0  0  0
 51 53  1  0  0  0  0
 52 53  1  0  0  0  0
M  CHG  1  18   1
M  END