
 OpenBabel11272002313D

 54 62  0  0  1  0  0  0  0  0999 V2000
  -11.0800   15.8880   67.1370 C   0  0  0  0  0  0  0  0  0  0  0  0
  -10.8280   16.9720   67.9030 C   0  0  0  0  0  0  0  0  0  0  0  0
  -11.1880   17.0560   69.2490 O   0  0  0  0  0  0  0  0  0  0  0  0
  -11.7830   15.9650   69.8710 C   0  0  0  0  0  0  0  0  0  0  0  0
  -11.9730   14.8030   69.2220 C   0  0  0  0  0  0  0  0  0  0  0  0
  -11.6500   14.6460   67.7680 C   0  0  0  0  0  0  0  0  0  0  0  0
  -12.5810   13.6020   69.8850 C   0  0  0  0  0  0  0  0  0  0  0  0
  -11.6150   12.5660   69.9190 O   0  0  0  0  0  0  0  0  0  0  0  0
  -11.9130   11.4830   70.6680 C   0  0  0  0  0  0  0  0  0  0  0  0
  -11.1830   10.4380   70.5810 N   0  0  0  0  0  0  0  0  0  0  0  0
  -12.9750   11.5230   71.5010 O   0  0  0  0  0  0  0  0  0  0  0  0
  -13.5100   12.6920   71.8980 C   0  0  0  0  0  0  0  0  0  0  0  0
  -14.4180   12.7830   72.7090 O   0  0  0  0  0  0  0  0  0  0  0  0
  -12.9480   13.8890   71.2790 C   0  0  0  0  0  0  0  0  0  0  0  0
  -12.7800   15.0850   71.8850 C   0  0  0  0  0  0  0  0  0  0  0  0
  -12.1760   16.1250   71.1810 O   0  0  0  0  0  0  0  0  0  0  0  0
  -10.0640   18.1400   67.4160 C   0  0  0  0  0  0  0  0  0  0  0  0
  -10.7090   18.8160   66.4370 N   0  0  0  0  0  0  0  0  0  0  0  0
  -10.0960   19.9070   65.9470 C   0  0  0  0  0  0  0  0  0  0  0  0
  -10.7090   20.5620   64.9500 F   0  0  0  0  0  0  0  0  0  0  0  0
   -8.8780   20.3800   66.3920 C   0  0  0  0  0  0  0  0  0  0  0  0
   -8.1860   19.6770   67.3930 C   0  0  0  0  0  0  0  0  0  0  0  0
   -8.7790   18.4890   67.8900 C   0  0  0  0  0  0  0  0  0  0  0  0
   -6.9200   20.1010   67.8970 C   0  0  0  0  0  0  0  0  0  0  0  0
   -8.0370   17.6900   68.7800 C   0  0  0  0  0  0  0  0  0  0  0  0
   -6.7380   18.0460   69.1500 C   0  0  0  0  0  0  0  0  0  0  0  0
   -5.9200   17.0910   69.9020 C   0  0  0  0  0  0  0  0  0  0  0  0
   -6.1830   19.2530   68.7490 C   0  0  0  0  0  0  0  0  0  0  0  0
   -6.3640   16.0300   70.3110 O   0  0  0  0  0  0  0  0  0  0  0  0
   -4.4690   17.4620   70.0650 C   0  0  0  0  0  0  0  0  0  0  0  0
   -3.6050   16.6000   70.1200 O   0  0  0  0  0  0  0  0  0  0  0  0
   -4.2350   18.9480   70.1330 C   0  0  0  0  0  0  0  0  0  0  0  0
   -4.9400   19.6960   69.1300 O   0  0  0  0  0  0  0  0  0  0  0  0
   -6.2950   21.2720   67.4050 N   0  0  0  0  0  0  0  0  0  0  0  0
   -4.5340   19.4840   71.5050 C   0  0  0  0  0  0  0  0  0  0  0  0
   -5.4640   18.7320   72.3150 O   0  0  0  0  0  0  0  0  0  0  0  0
   -3.4140   20.0020   72.2310 O   0  0  0  0  0  0  0  0  0  0  0  0
   -4.3380   20.8790   71.8240 C   0  0  0  0  0  0  0  0  0  0  0  0
   -4.2440   21.8780   71.1350 O   0  0  0  0  0  0  0  0  0  0  0  0
  -10.7330   15.8500   65.7910 O   0  0  0  0  0  0  0  0  0  0  0  0
  -10.5400   14.5590   65.1710 C   0  0  0  0  0  0  0  0  0  0  0  0
  -10.0980   13.5900   66.1190 O   0  0  0  0  0  0  0  0  0  0  0  0
   -9.9130   12.3310   65.5780 C   0  0  0  0  0  0  0  0  0  0  0  0
   -8.8060   11.6260   65.8300 C   0  0  0  0  0  0  0  0  0  0  0  0
  -10.9710   11.7320   64.7250 C   0  0  0  0  0  0  0  0  0  0  0  0
   -7.7790   12.1210   66.5910 O   0  0  0  0  0  0  0  0  0  0  0  0
  -12.1060   12.6930   64.4750 C   0  0  0  0  0  0  0  0  0  0  0  0
  -10.9470   10.6140   64.2450 O   0  0  0  0  0  0  0  0  0  0  0  0
  -11.7790   14.1590   64.3610 C   0  0  0  0  0  0  0  0  0  0  0  0
  -13.2690   12.3230   64.5040 O   0  0  0  0  0  0  0  0  0  0  0  0
  -12.4850   14.9180   63.7130 O   0  0  0  0  0  0  0  0  0  0  0  0
  -13.1700   15.4050   73.2830 C   0  0  0  0  0  0  0  0  0  0  0  0
  -12.2450   15.1780   74.3610 O   0  0  0  0  0  0  0  0  0  0  0  0
  -12.5720   16.5220   73.9620 O   0  0  0  0  0  0  0  0  0  0  0  0
  1 40  1  0  0  0  0
  1  2  2  0  0  0  0
  1  6  1  0  0  0  0
  2  3  1  0  0  0  0
  2 17  1  0  0  0  0
  3  4  1  0  0  0  0
  4  5  2  0  0  0  0
  4 16  1  0  0  0  0
  5  6  1  0  0  0  0
  5  7  1  0  0  0  0
  7  8  1  0  0  0  0
  7 14  1  0  0  0  0
  8  9  1  0  0  0  0
  9 10  2  0  0  0  0
  9 11  1  0  0  0  0
 11 12  1  0  0  0  0
 12 13  2  0  0  0  0
 12 14  1  0  0  0  0
 14 15  2  0  0  0  0
 15 16  1  0  0  0  0
 15 52  1  0  0  0  0
 17 18  2  0  0  0  0
 17 23  1  0  0  0  0
 18 19  1  0  0  0  0
 19 20  1  0  0  0  0
 19 21  2  0  0  0  0
 21 22  1  0  0  0  0
 22 23  2  0  0  0  0
 22 24  1  0  0  0  0
 23 25  1  0  0  0  0
 24 28  2  0  0  0  0
 24 34  1  0  0  0  0
 25 26  2  0  0  0  0
 26 27  1  0  0  0  0
 26 28  1  0  0  0  0
 27 29  2  0  0  0  0
 27 30  1  0  0  0  0
 28 33  1  0  0  0  0
 30 31  2  0  0  0  0
 30 32  1  0  0  0  0
 32 33  1  0  0  0  0
 32 35  1  0  0  0  0
 35 36  1  0  0  0  0
 35 37  1  0  0  0  0
 35 38  1  0  0  0  0
 37 38  1  0  0  0  0
 38 39  2  0  0  0  0
 40 41  1  0  0  0  0
 41 42  1  0  0  0  0
 41 49  1  0  0  0  0
 42 43  1  0  0  0  0
 43 44  2  0  0  0  0
 43 45  1  0  0  0  0
 44 46  1  0  0  0  0
 45 47  1  0  0  0  0
 45 48  2  0  0  0  0
 47 49  1  0  0  0  0
 47 50  2  0  0  0  0
 49 51  2  0  0  0  0
 52 53  1  0  0  0  0
 52 54  1  0  0  0  0
 53 54  1  0  0  0  0
M  CHG  1  16   1
M  END