
 OpenBabel05192121263D

 52 62  0  0  1  0  0  0  0  0999 V2000
  -11.3900    9.2600   70.4980 C   0  0  0  0  0  0  0  0  0  0  0  0
  -12.3610    9.6250   71.4720 C   0  0  0  0  0  0  0  0  0  0  0  0
  -12.9710    8.7030   72.5030 C   0  0  0  0  0  0  0  0  0  0  0  0
  -12.8060   10.9670   71.5770 C   0  0  0  0  0  0  0  0  0  0  0  0
  -12.4580   11.9810   70.6790 C   0  0  0  0  0  0  0  0  0  0  0  0
  -11.6740   11.5940   69.5700 C   0  0  0  0  0  0  0  0  0  0  0  0
  -11.0700   10.3030   69.5690 C   0  0  0  0  0  0  0  0  0  0  0  0
   -9.8770   10.2530   68.6860 C   0  0  0  0  0  0  0  0  0  0  0  0
   -8.8250    9.7990   69.1380 O   0  0  0  0  0  0  0  0  0  0  0  0
  -10.0240   10.8220   67.2460 C   0  0  0  0  0  0  0  0  0  0  0  0
  -10.9700   12.0510   67.1630 C   0  0  0  0  0  0  0  0  0  0  0  0
  -11.4970   12.5080   68.5080 C   0  0  0  0  0  0  0  0  0  0  0  0
  -11.9640   13.8050   68.6370 C   0  0  0  0  0  0  0  0  0  0  0  0
  -12.5950   14.2150   69.8070 C   0  0  0  0  0  0  0  0  0  0  0  0
  -12.8850   13.3350   70.8650 C   0  0  0  0  0  0  0  0  0  0  0  0
  -11.8670   14.7650   67.6880 O   0  0  0  0  0  0  0  0  0  0  0  0
  -11.1870   14.4870   66.4660 C   0  0  0  0  0  0  0  0  0  0  0  0
  -10.3250   13.2190   66.4000 C   0  0  0  0  0  0  0  0  0  0  0  0
   -8.9240   13.3820   66.9220 C   0  0  0  0  0  0  0  0  0  0  0  0
   -8.1690   12.2190   67.0770 C   0  0  0  0  0  0  0  0  0  0  0  0
   -8.7210   11.0320   66.6900 O   0  0  0  0  0  0  0  0  0  0  0  0
   -6.8700   12.2540   67.5700 C   0  0  0  0  0  0  0  0  0  0  0  0
   -6.0220   11.0230   67.7050 C   0  0  0  0  0  0  0  0  0  0  0  0
   -6.3580   13.4900   67.9750 C   0  0  0  0  0  0  0  0  0  0  0  0
   -7.1100   14.6710   67.8440 C   0  0  0  0  0  0  0  0  0  0  0  0
   -8.3850   14.6260   67.2580 C   0  0  0  0  0  0  0  0  0  0  0  0
   -9.0740   15.8260   67.0380 C   0  0  0  0  0  0  0  0  0  0  0  0
  -10.3580   15.7700   66.3090 C   0  0  0  0  0  0  0  0  0  0  0  0
  -10.7500   16.7370   65.6550 O   0  0  0  0  0  0  0  0  0  0  0  0
   -8.5570   17.0510   67.4770 C   0  0  0  0  0  0  0  0  0  0  0  0
   -7.3240   17.0940   68.1330 C   0  0  0  0  0  0  0  0  0  0  0  0
   -6.6170   15.8970   68.3060 C   0  0  0  0  0  0  0  0  0  0  0  0
  -12.1580   14.4270   65.4180 O   0  0  0  0  0  0  0  0  0  0  0  0
  -10.6160    9.8020   66.4340 O   0  0  0  0  0  0  0  0  0  0  0  0
  -10.7640    7.8720   70.4420 C   0  0  0  0  0  0  0  0  0  0  0  0
   -9.8380    7.3910   71.3970 C   0  0  0  0  0  0  0  0  0  0  0  0
   -9.3080    6.0920   71.3780 C   0  0  0  0  0  0  0  0  0  0  0  0
   -9.3910    8.1830   72.3810 F   0  0  0  0  0  0  0  0  0  0  0  0
   -9.6060    5.2340   70.3310 C   0  0  0  0  0  0  0  0  0  0  0  0
  -10.4650    5.6820   69.3460 C   0  0  0  0  0  0  0  0  0  0  0  0
  -10.7270    4.8930   68.2960 F   0  0  0  0  0  0  0  0  0  0  0  0
  -11.0670    6.9440   69.4220 C   0  0  0  0  0  0  0  0  0  0  0  0
  -13.6430   13.8550   72.2030 C   0  0  0  0  0  0  0  0  0  0  0  0
  -14.5510   15.3750   71.9520 C   0  0  0  0  0  0  0  0  0  0  0  0
  -13.5720   15.5510   72.7020 C   0  0  0  0  0  0  0  0  0  0  0  0
  -12.6040   14.9240   73.2020 C   0  0  0  0  0  0  0  0  0  0  0  0
   -6.7950   18.6170   68.9180 S   0  0  0  0  0  0  0  0  0  0  0  0
   -7.4560   19.8980   67.8270 C   0  0  0  0  0  0  0  0  0  0  0  0
   -6.9390   19.8920   66.3980 C   0  0  0  0  0  0  0  0  0  0  0  0
   -5.4220   20.0000   66.3100 C   0  0  0  0  0  0  0  0  0  0  0  0
   -4.7470   18.8210   66.9890 C   0  0  0  0  0  0  0  0  0  0  0  0
   -5.0500   18.7740   68.4790 C   0  0  0  0  0  0  0  0  0  0  0  0
  1 35  1  0  0  0  0
  1  2  2  0  0  0  0
  1  7  1  0  0  0  0
  2  4  1  0  0  0  0
  2  3  1  0  0  0  0
  4  5  2  0  0  0  0
  5  6  1  0  0  0  0
  5 15  1  0  0  0  0
  6  7  2  0  0  0  0
  6 12  1  0  0  0  0
  7  8  1  0  0  0  0
  8 10  1  0  0  0  0
  8  9  2  0  0  0  0
 10 11  1  0  0  0  0
 10 21  1  0  0  0  0
 10 34  1  0  0  0  0
 11 12  1  0  0  0  0
 11 18  1  0  0  0  0
 12 13  2  0  0  0  0
 13 14  1  0  0  0  0
 13 16  1  0  0  0  0
 14 15  2  0  0  0  0
 15 43  1  0  0  0  0
 16 17  1  0  0  0  0
 17 18  1  0  0  0  0
 17 28  1  0  0  0  0
 17 33  1  0  0  0  0
 18 19  1  0  0  0  0
 19 20  2  0  0  0  0
 19 26  1  0  0  0  0
 20 21  1  0  0  0  0
 20 22  1  0  0  0  0
 22 24  2  0  0  0  0
 22 23  1  0  0  0  0
 24 25  1  0  0  0  0
 25 26  2  0  0  0  0
 25 32  1  0  0  0  0
 26 27  1  0  0  0  0
 27 28  1  0  0  0  0
 27 30  2  0  0  0  0
 28 29  2  0  0  0  0
 30 31  1  0  0  0  0
 31 32  2  0  0  0  0
 31 47  1  0  0  0  0
 35 36  1  0  0  0  0
 35 42  2  0  0  0  0
 36 37  2  0  0  0  0
 36 38  1  0  0  0  0
 37 39  1  0  0  0  0
 39 40  2  0  0  0  0
 40 41  1  0  0  0  0
 40 42  1  0  0  0  0
 43 44  1  0  0  0  0
 43 46  1  0  0  0  0
 44 45  2  0  0  0  0
 45 46  2  0  0  0  0
 47 48  1  0  0  0  0
 47 52  1  0  0  0  0
 48 49  1  0  0  0  0
 49 50  1  0  0  0  0
 50 51  1  0  0  0  0
 51 52  1  0  0  0  0
M  CHG  1  47   1
M  END