
 OpenBabel05192111393D

 56 67  0  0  1  0  0  0  0  0999 V2000
  -10.4710    8.8810   69.3670 C   0  0  0  0  0  0  0  0  0  0  0  0
  -10.9280    9.2470   70.6830 C   0  0  0  0  0  0  0  0  0  0  0  0
  -11.5100   10.5570   70.8270 C   0  0  0  0  0  0  0  0  0  0  0  0
  -11.6680   11.5480   69.8380 C   0  0  0  0  0  0  0  0  0  0  0  0
  -11.2160   11.2030   68.5610 C   0  0  0  0  0  0  0  0  0  0  0  0
  -10.6450    9.9000   68.3540 C   0  0  0  0  0  0  0  0  0  0  0  0
  -10.2590    9.7030   66.9310 C   0  0  0  0  0  0  0  0  0  0  0  0
  -10.5780    8.6920   66.3100 O   0  0  0  0  0  0  0  0  0  0  0  0
   -9.5540   10.9190   66.2760 C   0  0  0  0  0  0  0  0  0  0  0  0
  -10.6740   11.9530   66.1760 C   0  0  0  0  0  0  0  0  0  0  0  0
  -11.3250   12.1780   67.5280 C   0  0  0  0  0  0  0  0  0  0  0  0
  -11.9150   13.4140   67.7550 C   0  0  0  0  0  0  0  0  0  0  0  0
  -12.3700   13.7280   69.0190 C   0  0  0  0  0  0  0  0  0  0  0  0
  -12.2500   12.8410   70.1120 C   0  0  0  0  0  0  0  0  0  0  0  0
  -12.0220   14.4030   66.8250 O   0  0  0  0  0  0  0  0  0  0  0  0
  -11.2250   14.3030   65.6370 C   0  0  0  0  0  0  0  0  0  0  0  0
  -10.0910   13.2730   65.6860 C   0  0  0  0  0  0  0  0  0  0  0  0
   -8.9680   13.6720   66.6190 C   0  0  0  0  0  0  0  0  0  0  0  0
   -8.2030   12.6710   67.2280 C   0  0  0  0  0  0  0  0  0  0  0  0
   -8.4220   11.3300   67.0530 O   0  0  0  0  0  0  0  0  0  0  0  0
   -7.2240   13.0220   68.1510 C   0  0  0  0  0  0  0  0  0  0  0  0
   -7.0150   14.3640   68.4790 C   0  0  0  0  0  0  0  0  0  0  0  0
   -7.7970   15.3750   67.8990 C   0  0  0  0  0  0  0  0  0  0  0  0
   -8.7820   15.0330   66.9600 C   0  0  0  0  0  0  0  0  0  0  0  0
   -9.5790   16.0680   66.4360 C   0  0  0  0  0  0  0  0  0  0  0  0
  -10.6320   15.7090   65.4670 C   0  0  0  0  0  0  0  0  0  0  0  0
  -11.0370   16.5120   64.6290 O   0  0  0  0  0  0  0  0  0  0  0  0
   -9.4750   17.3890   66.8870 C   0  0  0  0  0  0  0  0  0  0  0  0
   -8.5520   17.7080   67.8810 C   0  0  0  0  0  0  0  0  0  0  0  0
   -7.6530   16.7180   68.2850 C   0  0  0  0  0  0  0  0  0  0  0  0
  -12.0750   14.0090   64.5310 O   0  0  0  0  0  0  0  0  0  0  0  0
   -9.1200   10.5830   64.9600 O   0  0  0  0  0  0  0  0  0  0  0  0
   -9.8070    7.5610   69.0090 C   0  0  0  0  0  0  0  0  0  0  0  0
  -10.5340    6.3890   68.6600 C   0  0  0  0  0  0  0  0  0  0  0  0
   -9.9280    5.1900   68.2510 C   0  0  0  0  0  0  0  0  0  0  0  0
  -11.8750    6.3750   68.6990 F   0  0  0  0  0  0  0  0  0  0  0  0
   -8.5540    5.1370   68.0970 C   0  0  0  0  0  0  0  0  0  0  0  0
   -7.8070    6.2390   68.4860 C   0  0  0  0  0  0  0  0  0  0  0  0
   -6.4760    6.2040   68.3330 F   0  0  0  0  0  0  0  0  0  0  0  0
   -8.4100    7.4030   68.9960 C   0  0  0  0  0  0  0  0  0  0  0  0
  -10.9210    8.3700   72.0090 C   0  0  0  0  0  0  0  0  0  0  0  0
   -9.4890    8.2410   72.6580 C   0  0  0  0  0  0  0  0  0  0  0  0
   -9.3170    7.2790   73.8270 C   0  0  0  0  0  0  0  0  0  0  0  0
   -9.8320    5.9060   73.4560 C   0  0  0  0  0  0  0  0  0  0  0  0
  -11.3010    6.0280   73.0950 C   0  0  0  0  0  0  0  0  0  0  0  0
  -11.5400    6.9550   71.8880 C   0  0  0  0  0  0  0  0  0  0  0  0
  -12.7850   13.2910   71.5770 C   0  0  0  0  0  0  0  0  0  0  0  0
  -14.2970   14.2530   71.4510 C   0  0  0  0  0  0  0  0  0  0  0  0
  -13.3330   14.9460   71.8800 C   0  0  0  0  0  0  0  0  0  0  0  0
  -12.1220   14.8560   72.1340 C   0  0  0  0  0  0  0  0  0  0  0  0
   -8.5290   19.3810   68.5230 S   0  0  0  0  0  0  0  0  0  0  0  0
   -8.4210   20.4520   67.0770 C   0  0  0  0  0  0  0  0  0  0  0  0
   -7.2040   20.2720   66.1790 C   0  0  0  0  0  0  0  0  0  0  0  0
   -5.8940   20.4920   66.9100 C   0  0  0  0  0  0  0  0  0  0  0  0
   -5.7230   19.4980   68.0530 C   0  0  0  0  0  0  0  0  0  0  0  0
   -6.8200   19.5740   69.1060 C   0  0  0  0  0  0  0  0  0  0  0  0
  1 33  1  0  0  0  0
  1  2  2  0  0  0  0
  1  6  1  0  0  0  0
  2  3  1  0  0  0  0
  2 41  1  0  0  0  0
  3  4  2  0  0  0  0
  4  5  1  0  0  0  0
  4 14  1  0  0  0  0
  5  6  2  0  0  0  0
  5 11  1  0  0  0  0
  6  7  1  0  0  0  0
  7  9  1  0  0  0  0
  7  8  2  0  0  0  0
  9 10  1  0  0  0  0
  9 20  1  0  0  0  0
  9 32  1  0  0  0  0
 10 11  1  0  0  0  0
 10 17  1  0  0  0  0
 11 12  2  0  0  0  0
 12 13  1  0  0  0  0
 12 15  1  0  0  0  0
 13 14  2  0  0  0  0
 14 47  1  0  0  0  0
 15 16  1  0  0  0  0
 16 17  1  0  0  0  0
 16 26  1  0  0  0  0
 16 31  1  0  0  0  0
 17 18  1  0  0  0  0
 18 19  2  0  0  0  0
 18 24  1  0  0  0  0
 19 20  1  0  0  0  0
 19 21  1  0  0  0  0
 21 22  2  0  0  0  0
 22 23  1  0  0  0  0
 23 24  2  0  0  0  0
 23 30  1  0  0  0  0
 24 25  1  0  0  0  0
 25 26  1  0  0  0  0
 25 28  2  0  0  0  0
 26 27  2  0  0  0  0
 28 29  1  0  0  0  0
 29 30  2  0  0  0  0
 29 51  1  0  0  0  0
 33 34  1  0  0  0  0
 33 40  2  0  0  0  0
 34 35  2  0  0  0  0
 34 36  1  0  0  0  0
 35 37  1  0  0  0  0
 37 38  2  0  0  0  0
 38 39  1  0  0  0  0
 38 40  1  0  0  0  0
 41 42  1  0  0  0  0
 41 46  1  0  0  0  0
 42 43  1  0  0  0  0
 43 44  1  0  0  0  0
 44 45  1  0  0  0  0
 45 46  1  0  0  0  0
 47 48  1  0  0  0  0
 47 50  1  0  0  0  0
 48 49  2  0  0  0  0
 49 50  2  0  0  0  0
 51 52  1  0  0  0  0
 51 56  1  0  0  0  0
 52 53  1  0  0  0  0
 53 54  1  0  0  0  0
 54 55  1  0  0  0  0
 55 56  1  0  0  0  0
M  CHG  1  51   1
M  END