
 OpenBabel10242017373D

 51 58  0  0  1  0  0  0  0  0999 V2000
  -10.0970   15.7380   67.6340 C   0  0  0  0  0  0  0  0  0  0  0  0
  -10.1120   16.9230   68.2890 C   0  0  0  0  0  0  0  0  0  0  0  0
  -10.6900   17.1040   69.5420 O   0  0  0  0  0  0  0  0  0  0  0  0
  -11.3240   16.0380   70.1580 C   0  0  0  0  0  0  0  0  0  0  0  0
  -11.3730   14.8280   69.5850 C   0  0  0  0  0  0  0  0  0  0  0  0
  -10.7750   14.5400   68.2520 C   0  0  0  0  0  0  0  0  0  0  0  0
  -12.0180   13.7130   70.3310 C   0  0  0  0  0  0  0  0  0  0  0  0
  -12.0500   12.5330   69.8080 N   0  0  0  0  0  0  0  0  0  0  0  0
  -12.6290   11.4960   70.5000 C   0  0  0  0  0  0  0  0  0  0  0  0
  -12.6090   10.3830   69.9880 O   0  0  0  0  0  0  0  0  0  0  0  0
  -13.2180   11.6550   71.7360 N   0  0  0  0  0  0  0  0  0  0  0  0
  -13.1960   12.8190   72.2930 C   0  0  0  0  0  0  0  0  0  0  0  0
  -12.5850   14.0050   71.6720 C   0  0  0  0  0  0  0  0  0  0  0  0
  -12.4770   15.2650   72.1420 C   0  0  0  0  0  0  0  0  0  0  0  0
  -11.8930   16.2800   71.3850 N   0  0  0  0  0  0  0  0  0  0  0  0
   -9.5390   18.1610   67.7370 C   0  0  0  0  0  0  0  0  0  0  0  0
  -10.4070   18.8950   67.0080 N   0  0  0  0  0  0  0  0  0  0  0  0
   -9.9350   20.0550   66.5450 C   0  0  0  0  0  0  0  0  0  0  0  0
   -8.7010   20.5370   66.7370 N   0  0  0  0  0  0  0  0  0  0  0  0
   -7.8530   19.7810   67.4390 C   0  0  0  0  0  0  0  0  0  0  0  0
   -8.2020   18.5320   67.9640 C   0  0  0  0  0  0  0  0  0  0  0  0
   -6.5710   20.2610   67.6640 C   0  0  0  0  0  0  0  0  0  0  0  0
   -7.2310   17.7650   68.6630 C   0  0  0  0  0  0  0  0  0  0  0  0
   -5.9440   18.2690   68.8850 C   0  0  0  0  0  0  0  0  0  0  0  0
   -5.6290   19.5320   68.3920 C   0  0  0  0  0  0  0  0  0  0  0  0
   -4.9210   17.5480   69.6730 C   0  0  0  0  0  0  0  0  0  0  0  0
   -4.4260   20.1530   68.5840 O   0  0  0  0  0  0  0  0  0  0  0  0
   -3.7520   19.8040   69.8000 C   0  0  0  0  0  0  0  0  0  0  0  0
   -3.6500   18.3110   70.0010 C   0  0  0  0  0  0  0  0  0  0  0  0
   -2.6440   17.7570   70.4190 O   0  0  0  0  0  0  0  0  0  0  0  0
   -5.0580   15.9950   70.2920 S   0  0  0  0  0  0  0  0  0  0  0  0
   -4.3770   20.4970   70.9740 C   0  0  0  0  0  0  0  0  0  0  0  0
   -5.7080   21.0160   70.8210 O   0  0  0  0  0  0  0  0  0  0  0  0
   -4.0910   19.9430   72.2670 O   0  0  0  0  0  0  0  0  0  0  0  0
   -3.5240   21.1000   71.9900 C   0  0  0  0  0  0  0  0  0  0  0  0
   -2.3440   21.4020   71.9880 O   0  0  0  0  0  0  0  0  0  0  0  0
   -9.5690   15.6160   66.3500 O   0  0  0  0  0  0  0  0  0  0  0  0
   -9.9580   14.4680   65.5700 C   0  0  0  0  0  0  0  0  0  0  0  0
  -10.3340   13.3510   66.3860 O   0  0  0  0  0  0  0  0  0  0  0  0
  -10.5460   12.1780   65.6820 C   0  0  0  0  0  0  0  0  0  0  0  0
  -10.2150   10.9860   66.1940 C   0  0  0  0  0  0  0  0  0  0  0  0
  -11.2240   12.2140   64.3610 C   0  0  0  0  0  0  0  0  0  0  0  0
   -9.6470   10.8520   67.4320 O   0  0  0  0  0  0  0  0  0  0  0  0
  -11.7180   13.5960   63.9820 C   0  0  0  0  0  0  0  0  0  0  0  0
  -11.3680   11.2480   63.6320 O   0  0  0  0  0  0  0  0  0  0  0  0
  -11.1830   14.8010   64.7270 C   0  0  0  0  0  0  0  0  0  0  0  0
  -12.5380   13.7310   63.0880 O   0  0  0  0  0  0  0  0  0  0  0  0
  -11.7270   15.8920   64.6330 O   0  0  0  0  0  0  0  0  0  0  0  0
  -12.9790   15.6240   73.5070 C   0  0  0  0  0  0  0  0  0  0  0  0
  -12.4160   15.3600   74.5520 O   0  0  0  0  0  0  0  0  0  0  0  0
  -14.1270   16.3370   73.4480 O   0  0  0  0  0  0  0  0  0  0  0  0
  1 37  1  0  0  0  0
  1  2  2  0  0  0  0
  1  6  1  0  0  0  0
  2  3  1  0  0  0  0
  2 16  1  0  0  0  0
  3  4  1  0  0  0  0
  4  5  2  0  0  0  0
  4 15  1  0  0  0  0
  5  6  1  0  0  0  0
  5  7  1  0  0  0  0
  7  8  2  0  0  0  0
  7 13  1  0  0  0  0
  8  9  1  0  0  0  0
  9 10  2  0  0  0  0
  9 11  1  0  0  0  0
 11 12  2  0  0  0  0
 12 13  1  0  0  0  0
 13 14  2  0  0  0  0
 14 15  1  0  0  0  0
 14 49  1  0  0  0  0
 16 17  2  0  0  0  0
 16 21  1  0  0  0  0
 17 18  1  0  0  0  0
 18 19  2  0  0  0  0
 19 20  1  0  0  0  0
 20 21  2  0  0  0  0
 20 22  1  0  0  0  0
 21 23  1  0  0  0  0
 22 25  2  0  0  0  0
 23 24  2  0  0  0  0
 24 25  1  0  0  0  0
 24 26  1  0  0  0  0
 25 27  1  0  0  0  0
 26 29  1  0  0  0  0
 26 31  2  0  0  0  0
 27 28  1  0  0  0  0
 28 29  1  0  0  0  0
 28 32  1  0  0  0  0
 29 30  2  0  0  0  0
 32 33  1  0  0  0  0
 32 34  1  0  0  0  0
 32 35  1  0  0  0  0
 34 35  1  0  0  0  0
 35 36  2  0  0  0  0
 37 38  1  0  0  0  0
 38 39  1  0  0  0  0
 38 46  1  0  0  0  0
 39 40  1  0  0  0  0
 40 41  2  0  0  0  0
 40 42  1  0  0  0  0
 41 43  1  0  0  0  0
 42 44  1  0  0  0  0
 42 45  2  0  0  0  0
 44 46  1  0  0  0  0
 44 47  2  0  0  0  0
 46 48  2  0  0  0  0
 49 50  2  0  0  0  0
 49 51  1  0  0  0  0
M  END
