
 OpenBabel11212022123D

 54 62  0  0  1  0  0  0  0  0999 V2000
  -11.0520   15.6630   67.4430 C   0  0  0  0  0  0  0  0  0  0  0  0
  -10.6480   16.7570   68.1270 C   0  0  0  0  0  0  0  0  0  0  0  0
  -11.0350   16.9720   69.4580 O   0  0  0  0  0  0  0  0  0  0  0  0
  -11.7910   16.0110   70.1380 C   0  0  0  0  0  0  0  0  0  0  0  0
  -12.1400   14.8500   69.5500 C   0  0  0  0  0  0  0  0  0  0  0  0
  -11.8550   14.5760   68.1040 C   0  0  0  0  0  0  0  0  0  0  0  0
  -12.8370   13.7450   70.3020 C   0  0  0  0  0  0  0  0  0  0  0  0
  -11.9310   12.6560   70.3720 O   0  0  0  0  0  0  0  0  0  0  0  0
  -12.3390   11.5500   71.0550 C   0  0  0  0  0  0  0  0  0  0  0  0
  -11.7680   10.4800   70.9380 O   0  0  0  0  0  0  0  0  0  0  0  0
  -13.4340   11.7210   71.8340 O   0  0  0  0  0  0  0  0  0  0  0  0
  -13.7210   12.9760   72.4370 C   0  0  0  0  0  0  0  0  0  0  0  0
  -13.1190   14.1240   71.7030 C   0  0  0  0  0  0  0  0  0  0  0  0
  -12.8100   15.3360   72.2150 C   0  0  0  0  0  0  0  0  0  0  0  0
  -12.1540   16.2830   71.4400 O   0  0  0  0  0  0  0  0  0  0  0  0
  -15.1170   13.1940   72.3770 O   0  0  0  0  0  0  0  0  0  0  0  0
   -9.7450   17.8000   67.5260 C   0  0  0  0  0  0  0  0  0  0  0  0
  -10.2780   18.7090   66.6020 C   0  0  0  0  0  0  0  0  0  0  0  0
   -9.5260   19.6650   66.0480 N   0  0  0  0  0  0  0  0  0  0  0  0
  -10.1050   20.5550   65.2180 F   0  0  0  0  0  0  0  0  0  0  0  0
   -8.2320   19.7640   66.2680 N   0  0  0  0  0  0  0  0  0  0  0  0
   -7.6390   18.9160   67.1100 C   0  0  0  0  0  0  0  0  0  0  0  0
   -8.3600   17.9200   67.8050 C   0  0  0  0  0  0  0  0  0  0  0  0
   -6.2600   19.0230   67.3080 C   0  0  0  0  0  0  0  0  0  0  0  0
   -7.6480   17.1200   68.7310 C   0  0  0  0  0  0  0  0  0  0  0  0
   -6.2650   17.2570   68.9040 C   0  0  0  0  0  0  0  0  0  0  0  0
   -5.5390   16.3670   69.8120 C   0  0  0  0  0  0  0  0  0  0  0  0
   -5.5600   18.2080   68.1950 C   0  0  0  0  0  0  0  0  0  0  0  0
   -6.0700   15.3320   70.1870 O   0  0  0  0  0  0  0  0  0  0  0  0
   -4.1330   16.7820   70.2080 C   0  0  0  0  0  0  0  0  0  0  0  0
   -3.4910   16.1060   70.9980 O   0  0  0  0  0  0  0  0  0  0  0  0
   -3.6690   18.0990   69.6140 C   0  0  0  0  0  0  0  0  0  0  0  0
   -4.2100   18.3750   68.3090 O   0  0  0  0  0  0  0  0  0  0  0  0
   -5.5790   19.9550   66.6240 F   0  0  0  0  0  0  0  0  0  0  0  0
   -3.9540   19.2480   70.5270 C   0  0  0  0  0  0  0  0  0  0  0  0
   -4.7140   18.9540   71.7310 O   0  0  0  0  0  0  0  0  0  0  0  0
   -2.9370   20.2290   70.6490 O   0  0  0  0  0  0  0  0  0  0  0  0
   -4.0730   20.6280   70.0390 C   0  0  0  0  0  0  0  0  0  0  0  0
   -4.8900   21.4580   70.3710 O   0  0  0  0  0  0  0  0  0  0  0  0
  -10.6560   15.4860   66.1340 O   0  0  0  0  0  0  0  0  0  0  0  0
  -10.2840   14.1810   65.6640 C   0  0  0  0  0  0  0  0  0  0  0  0
  -10.2060   13.2670   66.7460 O   0  0  0  0  0  0  0  0  0  0  0  0
   -9.8400   11.9370   66.3680 C   0  0  0  0  0  0  0  0  0  0  0  0
  -10.4040   11.3840   65.0610 C   0  0  0  0  0  0  0  0  0  0  0  0
  -11.2500   12.3560   64.2620 C   0  0  0  0  0  0  0  0  0  0  0  0
  -10.1850   10.2530   64.6560 O   0  0  0  0  0  0  0  0  0  0  0  0
  -11.4150   13.7680   64.7520 C   0  0  0  0  0  0  0  0  0  0  0  0
  -11.7690   12.0280   63.2100 O   0  0  0  0  0  0  0  0  0  0  0  0
  -12.3670   14.4750   64.4470 O   0  0  0  0  0  0  0  0  0  0  0  0
   -8.3150   11.7710   66.3770 C   0  0  0  0  0  0  0  0  0  0  0  0
   -7.7550   12.4420   67.5090 O   0  0  0  0  0  0  0  0  0  0  0  0
  -13.0920   15.7320   73.6130 C   0  0  0  0  0  0  0  0  0  0  0  0
  -12.2230   15.3220   74.6750 O   0  0  0  0  0  0  0  0  0  0  0  0
  -12.2620   16.7040   74.2720 O   0  0  0  0  0  0  0  0  0  0  0  0
  1 40  1  0  0  0  0
  1  2  2  0  0  0  0
  1  6  1  0  0  0  0
  2  3  1  0  0  0  0
  2 17  1  0  0  0  0
  3  4  1  0  0  0  0
  4  5  2  0  0  0  0
  4 15  1  0  0  0  0
  5  6  1  0  0  0  0
  5  7  1  0  0  0  0
  7  8  1  0  0  0  0
  7 13  1  0  0  0  0
  8  9  1  0  0  0  0
  9 10  2  0  0  0  0
  9 11  1  0  0  0  0
 11 12  1  0  0  0  0
 12 13  1  0  0  0  0
 12 16  1  0  0  0  0
 13 14  2  0  0  0  0
 14 15  1  0  0  0  0
 14 52  1  0  0  0  0
 17 18  2  0  0  0  0
 17 23  1  0  0  0  0
 18 19  1  0  0  0  0
 19 20  1  0  0  0  0
 19 21  2  0  0  0  0
 21 22  1  0  0  0  0
 22 23  2  0  0  0  0
 22 24  1  0  0  0  0
 23 25  1  0  0  0  0
 24 28  2  0  0  0  0
 24 34  1  0  0  0  0
 25 26  2  0  0  0  0
 26 27  1  0  0  0  0
 26 28  1  0  0  0  0
 27 29  2  0  0  0  0
 27 30  1  0  0  0  0
 28 33  1  0  0  0  0
 30 31  2  0  0  0  0
 30 32  1  0  0  0  0
 32 33  1  0  0  0  0
 32 35  1  0  0  0  0
 35 36  1  0  0  0  0
 35 37  1  0  0  0  0
 35 38  1  0  0  0  0
 37 38  1  0  0  0  0
 38 39  2  0  0  0  0
 40 41  1  0  0  0  0
 41 42  1  0  0  0  0
 41 47  1  0  0  0  0
 42 43  1  0  0  0  0
 43 50  1  0  0  0  0
 43 44  1  0  0  0  0
 44 45  1  0  0  0  0
 44 46  2  0  0  0  0
 45 47  1  0  0  0  0
 45 48  2  0  0  0  0
 47 49  2  0  0  0  0
 50 51  1  0  0  0  0
 52 53  1  0  0  0  0
 52 54  1  0  0  0  0
 53 54  1  0  0  0  0
M  CHG  2  15   1  19   1
M  END