
 OpenBabel11152011563D

 52 60  0  0  1  0  0  0  0  0999 V2000
  -10.8250   14.6110   66.8920 C   0  0  0  0  0  0  0  0  0  0  0  0
  -10.0930   15.6550   67.3450 C   0  0  0  0  0  0  0  0  0  0  0  0
  -10.1350   16.0550   68.6870 O   0  0  0  0  0  0  0  0  0  0  0  0
  -11.0120   15.4400   69.5630 C   0  0  0  0  0  0  0  0  0  0  0  0
  -11.7520   14.3780   69.2090 C   0  0  0  0  0  0  0  0  0  0  0  0
  -11.6890   13.8070   67.8340 C   0  0  0  0  0  0  0  0  0  0  0  0
  -12.7500   13.7770   70.1630 C   0  0  0  0  0  0  0  0  0  0  0  0
  -12.4170   12.4020   70.3350 O   0  0  0  0  0  0  0  0  0  0  0  0
  -12.9430   11.6720   71.3500 C   0  0  0  0  0  0  0  0  0  0  0  0
  -12.8220   10.4550   71.3800 O   0  0  0  0  0  0  0  0  0  0  0  0
  -13.5640   12.3410   72.3530 O   0  0  0  0  0  0  0  0  0  0  0  0
  -13.7580   13.7500   72.3660 C   0  0  0  0  0  0  0  0  0  0  0  0
  -12.7860   14.4360   71.4950 C   0  0  0  0  0  0  0  0  0  0  0  0
  -12.0110   15.5040   71.7880 C   0  0  0  0  0  0  0  0  0  0  0  0
  -11.1240   15.9700   70.8250 N   0  0  0  0  0  0  0  0  0  0  0  0
  -15.0660   14.0350   71.9000 O   0  0  0  0  0  0  0  0  0  0  0  0
   -9.2250   16.5310   66.4460 C   0  0  0  0  0  0  0  0  0  0  0  0
  -10.1090   17.2990   65.5540 N   0  0  0  0  0  0  0  0  0  0  0  0
  -10.5440   18.4260   65.8700 N   0  0  0  0  0  0  0  0  0  0  0  0
  -10.0710   19.1070   66.9970 N   0  0  0  0  0  0  0  0  0  0  0  0
   -8.9710   18.7070   67.5450 C   0  0  0  0  0  0  0  0  0  0  0  0
   -8.2970   17.4590   67.1530 C   0  0  0  0  0  0  0  0  0  0  0  0
   -8.3510   19.5370   68.6590 C   0  0  0  0  0  0  0  0  0  0  0  0
   -6.9760   17.3700   67.3770 C   0  0  0  0  0  0  0  0  0  0  0  0
   -6.2190   18.4540   67.9890 C   0  0  0  0  0  0  0  0  0  0  0  0
   -6.8420   19.4730   68.6100 C   0  0  0  0  0  0  0  0  0  0  0  0
   -4.7390   18.4710   67.9120 C   0  0  0  0  0  0  0  0  0  0  0  0
   -6.2270   20.5310   69.2450 O   0  0  0  0  0  0  0  0  0  0  0  0
   -4.8080   20.4970   69.4340 C   0  0  0  0  0  0  0  0  0  0  0  0
   -4.0700   19.7470   68.3580 C   0  0  0  0  0  0  0  0  0  0  0  0
   -3.0080   20.1060   67.8660 O   0  0  0  0  0  0  0  0  0  0  0  0
   -4.0810   17.5350   67.4830 O   0  0  0  0  0  0  0  0  0  0  0  0
   -4.4150   20.0330   70.8090 C   0  0  0  0  0  0  0  0  0  0  0  0
   -4.7820   18.6860   71.1660 O   0  0  0  0  0  0  0  0  0  0  0  0
   -3.0790   20.3920   71.2270 O   0  0  0  0  0  0  0  0  0  0  0  0
   -4.1040   20.9440   71.8800 C   0  0  0  0  0  0  0  0  0  0  0  0
   -4.4010   22.0870   72.1390 O   0  0  0  0  0  0  0  0  0  0  0  0
  -10.7900   14.2520   65.5470 O   0  0  0  0  0  0  0  0  0  0  0  0
   -9.9580   13.1340   65.2020 C   0  0  0  0  0  0  0  0  0  0  0  0
   -9.7920   12.2480   66.3090 O   0  0  0  0  0  0  0  0  0  0  0  0
   -8.8830   11.2320   66.0820 C   0  0  0  0  0  0  0  0  0  0  0  0
   -8.0440   10.8280   67.0440 C   0  0  0  0  0  0  0  0  0  0  0  0
   -8.8290   10.5410   64.7650 C   0  0  0  0  0  0  0  0  0  0  0  0
   -7.9920   11.4190   68.2790 O   0  0  0  0  0  0  0  0  0  0  0  0
   -9.7840   11.1040   63.7290 C   0  0  0  0  0  0  0  0  0  0  0  0
   -8.0580    9.6330   64.5030 O   0  0  0  0  0  0  0  0  0  0  0  0
  -10.5570   12.3650   64.0370 C   0  0  0  0  0  0  0  0  0  0  0  0
   -9.8880   10.5710   62.6350 O   0  0  0  0  0  0  0  0  0  0  0  0
  -11.5100   12.7060   63.3520 O   0  0  0  0  0  0  0  0  0  0  0  0
  -12.0280   16.2370   73.0730 C   0  0  0  0  0  0  0  0  0  0  0  0
  -13.2480   16.4480   73.8020 O   0  0  0  0  0  0  0  0  0  0  0  0
  -12.2350   15.5750   74.3320 O   0  0  0  0  0  0  0  0  0  0  0  0
  1 38  1  0  0  0  0
  1  2  2  0  0  0  0
  1  6  1  0  0  0  0
  2  3  1  0  0  0  0
  2 17  1  0  0  0  0
  3  4  1  0  0  0  0
  4  5  2  0  0  0  0
  4 15  1  0  0  0  0
  5  6  1  0  0  0  0
  5  7  1  0  0  0  0
  7  8  1  0  0  0  0
  7 13  1  0  0  0  0
  8  9  1  0  0  0  0
  9 10  2  0  0  0  0
  9 11  1  0  0  0  0
 11 12  1  0  0  0  0
 12 13  1  0  0  0  0
 12 16  1  0  0  0  0
 13 14  2  0  0  0  0
 14 15  1  0  0  0  0
 14 50  1  0  0  0  0
 17 18  1  0  0  0  0
 17 22  1  0  0  0  0
 18 19  2  0  0  0  0
 19 20  1  0  0  0  0
 20 21  2  0  0  0  0
 21 22  1  0  0  0  0
 21 23  1  0  0  0  0
 22 24  2  0  0  0  0
 23 26  1  0  0  0  0
 24 25  1  0  0  0  0
 25 26  2  0  0  0  0
 25 27  1  0  0  0  0
 26 28  1  0  0  0  0
 27 30  1  0  0  0  0
 27 32  2  0  0  0  0
 28 29  1  0  0  0  0
 29 30  1  0  0  0  0
 29 33  1  0  0  0  0
 30 31  2  0  0  0  0
 33 34  1  0  0  0  0
 33 35  1  0  0  0  0
 33 36  1  0  0  0  0
 35 36  1  0  0  0  0
 36 37  2  0  0  0  0
 38 39  1  0  0  0  0
 39 40  1  0  0  0  0
 39 47  1  0  0  0  0
 40 41  1  0  0  0  0
 41 42  2  0  0  0  0
 41 43  1  0  0  0  0
 42 44  1  0  0  0  0
 43 45  1  0  0  0  0
 43 46  2  0  0  0  0
 45 47  1  0  0  0  0
 45 48  2  0  0  0  0
 47 49  2  0  0  0  0
 50 51  1  0  0  0  0
 50 52  1  0  0  0  0
 51 52  1  0  0  0  0
M  END
