
 OpenBabel10202002423D

 51 59  0  0  1  0  0  0  0  0999 V2000
  -10.4700   15.3910   67.3790 C   0  0  0  0  0  0  0  0  0  0  0  0
  -10.6580   16.6550   67.8400 C   0  0  0  0  0  0  0  0  0  0  0  0
  -11.3640   16.9120   69.0340 O   0  0  0  0  0  0  0  0  0  0  0  0
  -11.8350   15.8700   69.8130 C   0  0  0  0  0  0  0  0  0  0  0  0
  -11.7600   14.6080   69.3860 C   0  0  0  0  0  0  0  0  0  0  0  0
  -11.1120   14.2340   68.1130 C   0  0  0  0  0  0  0  0  0  0  0  0
  -12.2480   13.5200   70.2690 C   0  0  0  0  0  0  0  0  0  0  0  0
  -12.2170   12.2910   69.8680 N   0  0  0  0  0  0  0  0  0  0  0  0
  -12.6660   11.3000   70.7160 C   0  0  0  0  0  0  0  0  0  0  0  0
  -12.6680   10.1490   70.2990 O   0  0  0  0  0  0  0  0  0  0  0  0
  -13.1020   11.5410   72.0040 N   0  0  0  0  0  0  0  0  0  0  0  0
  -13.1330   12.7580   72.4290 C   0  0  0  0  0  0  0  0  0  0  0  0
  -12.7320   13.9010   71.6090 C   0  0  0  0  0  0  0  0  0  0  0  0
  -12.7550   15.2010   71.9660 C   0  0  0  0  0  0  0  0  0  0  0  0
  -12.3580   16.1700   71.0490 N   0  0  0  0  0  0  0  0  0  0  0  0
  -10.0430   17.9080   67.2610 C   0  0  0  0  0  0  0  0  0  0  0  0
  -10.7330   18.5300   66.3670 N   0  0  0  0  0  0  0  0  0  0  0  0
  -10.2300   19.7270   65.7160 C   0  0  0  0  0  0  0  0  0  0  0  0
   -9.0490   20.3630   66.2710 N   0  0  0  0  0  0  0  0  0  0  0  0
   -8.3490   19.7340   67.1420 C   0  0  0  0  0  0  0  0  0  0  0  0
   -8.7020   18.3960   67.6760 C   0  0  0  0  0  0  0  0  0  0  0  0
   -7.0960   20.3700   67.6090 C   0  0  0  0  0  0  0  0  0  0  0  0
   -7.8060   17.7460   68.4350 C   0  0  0  0  0  0  0  0  0  0  0  0
   -6.5390   18.3600   68.9590 C   0  0  0  0  0  0  0  0  0  0  0  0
   -6.2610   19.7400   68.4400 C   0  0  0  0  0  0  0  0  0  0  0  0
   -5.3040   17.5360   68.6670 C   0  0  0  0  0  0  0  0  0  0  0  0
   -5.0880   20.3790   68.7950 O   0  0  0  0  0  0  0  0  0  0  0  0
   -4.0920   19.6340   69.5030 C   0  0  0  0  0  0  0  0  0  0  0  0
   -4.0080   18.1660   69.1440 C   0  0  0  0  0  0  0  0  0  0  0  0
   -3.0110   17.4830   69.3330 O   0  0  0  0  0  0  0  0  0  0  0  0
   -5.3000   16.4160   68.1770 O   0  0  0  0  0  0  0  0  0  0  0  0
   -4.1980   19.8970   70.9780 C   0  0  0  0  0  0  0  0  0  0  0  0
   -4.9630   18.9220   71.7210 O   0  0  0  0  0  0  0  0  0  0  0  0
   -2.9800   20.3200   71.6030 O   0  0  0  0  0  0  0  0  0  0  0  0
   -3.9960   21.1940   71.6080 C   0  0  0  0  0  0  0  0  0  0  0  0
   -4.5010   21.7710   72.5510 O   0  0  0  0  0  0  0  0  0  0  0  0
   -9.6390   15.0990   66.2970 O   0  0  0  0  0  0  0  0  0  0  0  0
   -9.9790   13.9890   65.4540 C   0  0  0  0  0  0  0  0  0  0  0  0
   -9.8660   12.7430   66.1480 O   0  0  0  0  0  0  0  0  0  0  0  0
  -10.0170   11.6310   65.3240 C   0  0  0  0  0  0  0  0  0  0  0  0
   -9.4760   10.4510   65.6530 C   0  0  0  0  0  0  0  0  0  0  0  0
  -10.8150   11.6940   64.0600 C   0  0  0  0  0  0  0  0  0  0  0  0
   -8.7590   10.2550   66.8040 O   0  0  0  0  0  0  0  0  0  0  0  0
  -11.6290   12.9690   63.9100 C   0  0  0  0  0  0  0  0  0  0  0  0
  -10.8070   10.8290   63.2000 O   0  0  0  0  0  0  0  0  0  0  0  0
  -11.3860   14.0830   64.9010 C   0  0  0  0  0  0  0  0  0  0  0  0
  -12.4040   13.1240   62.9810 O   0  0  0  0  0  0  0  0  0  0  0  0
  -12.2320   14.9190   65.1660 O   0  0  0  0  0  0  0  0  0  0  0  0
  -13.1750   15.6910   73.3000 C   0  0  0  0  0  0  0  0  0  0  0  0
  -12.3890   15.4280   74.4720 O   0  0  0  0  0  0  0  0  0  0  0  0
  -12.4990   16.7720   73.9650 O   0  0  0  0  0  0  0  0  0  0  0  0
  1 37  1  0  0  0  0
  1  2  2  0  0  0  0
  1  6  1  0  0  0  0
  2  3  1  0  0  0  0
  2 16  1  0  0  0  0
  3  4  1  0  0  0  0
  4  5  2  0  0  0  0
  4 15  1  0  0  0  0
  5  6  1  0  0  0  0
  5  7  1  0  0  0  0
  7  8  2  0  0  0  0
  7 13  1  0  0  0  0
  8  9  1  0  0  0  0
  9 10  2  0  0  0  0
  9 11  1  0  0  0  0
 11 12  2  0  0  0  0
 12 13  1  0  0  0  0
 13 14  2  0  0  0  0
 14 15  1  0  0  0  0
 14 49  1  0  0  0  0
 16 17  2  0  0  0  0
 16 21  1  0  0  0  0
 17 18  1  0  0  0  0
 18 19  1  0  0  0  0
 19 20  2  0  0  0  0
 20 21  1  0  0  0  0
 20 22  1  0  0  0  0
 21 23  2  0  0  0  0
 22 25  2  0  0  0  0
 23 24  1  0  0  0  0
 24 25  1  0  0  0  0
 24 26  1  0  0  0  0
 25 27  1  0  0  0  0
 26 29  1  0  0  0  0
 26 31  2  0  0  0  0
 27 28  1  0  0  0  0
 28 29  1  0  0  0  0
 28 32  1  0  0  0  0
 29 30  2  0  0  0  0
 32 33  1  0  0  0  0
 32 34  1  0  0  0  0
 32 35  1  0  0  0  0
 34 35  1  0  0  0  0
 35 36  2  0  0  0  0
 37 38  1  0  0  0  0
 38 39  1  0  0  0  0
 38 46  1  0  0  0  0
 39 40  1  0  0  0  0
 40 41  2  0  0  0  0
 40 42  1  0  0  0  0
 41 43  1  0  0  0  0
 42 44  1  0  0  0  0
 42 45  2  0  0  0  0
 44 46  1  0  0  0  0
 44 47  2  0  0  0  0
 46 48  2  0  0  0  0
 49 50  1  0  0  0  0
 49 51  1  0  0  0  0
 50 51  1  0  0  0  0
M  END
