
 OpenBabel09222002363D

 52 60  0  0  1  0  0  0  0  0999 V2000
  -11.6470    9.8610   70.5340 O   0  0  0  0  0  0  0  0  0  0  0  0
  -12.0770   10.9920   70.7410 C   0  0  0  0  0  0  0  0  0  0  0  0
  -13.1340   11.2120   71.5580 N   0  0  0  0  0  0  0  0  0  0  0  0
  -13.5400   12.5140   72.0370 C   0  0  0  0  0  0  0  0  0  0  0  0
  -12.9490   13.6350   71.2560 C   0  0  0  0  0  0  0  0  0  0  0  0
  -11.9540   13.3960   70.3210 C   0  0  0  0  0  0  0  0  0  0  0  0
  -11.5290   12.0760   70.1270 N   0  0  0  0  0  0  0  0  0  0  0  0
  -11.3910   14.4580   69.6010 C   0  0  0  0  0  0  0  0  0  0  0  0
  -10.4700   14.2460   68.4560 C   0  0  0  0  0  0  0  0  0  0  0  0
  -10.1050   15.4900   67.6830 C   0  0  0  0  0  0  0  0  0  0  0  0
  -10.3840   16.7170   68.2050 C   0  0  0  0  0  0  0  0  0  0  0  0
  -11.2000   16.8440   69.3470 O   0  0  0  0  0  0  0  0  0  0  0  0
  -11.7800   15.7420   69.9320 C   0  0  0  0  0  0  0  0  0  0  0  0
  -12.7380   16.0110   70.8470 N   0  0  0  0  0  0  0  0  0  0  0  0
  -13.2980   14.9530   71.4540 C   0  0  0  0  0  0  0  0  0  0  0  0
  -14.2830   15.2900   72.3260 O   0  0  0  0  0  0  0  0  0  0  0  0
   -9.8520   18.0790   67.8000 C   0  0  0  0  0  0  0  0  0  0  0  0
  -10.7790   18.8010   67.1020 N   0  0  0  0  0  0  0  0  0  0  0  0
  -10.4700   20.0380   66.6660 C   0  0  0  0  0  0  0  0  0  0  0  0
   -9.2610   20.6570   66.9140 C   0  0  0  0  0  0  0  0  0  0  0  0
   -8.2830   19.9550   67.6190 C   0  0  0  0  0  0  0  0  0  0  0  0
   -8.5630   18.6240   68.0410 C   0  0  0  0  0  0  0  0  0  0  0  0
   -7.0190   20.5450   67.8780 C   0  0  0  0  0  0  0  0  0  0  0  0
   -7.4940   17.9270   68.6150 C   0  0  0  0  0  0  0  0  0  0  0  0
   -6.2500   18.5100   68.8420 C   0  0  0  0  0  0  0  0  0  0  0  0
   -5.9980   19.8280   68.5080 C   0  0  0  0  0  0  0  0  0  0  0  0
   -5.1740   17.6730   69.3640 C   0  0  0  0  0  0  0  0  0  0  0  0
   -4.8070   20.4680   68.7240 O   0  0  0  0  0  0  0  0  0  0  0  0
   -3.7240   19.7130   69.3080 C   0  0  0  0  0  0  0  0  0  0  0  0
   -3.8000   18.2190   69.0830 C   0  0  0  0  0  0  0  0  0  0  0  0
   -2.8790   17.5060   68.7310 O   0  0  0  0  0  0  0  0  0  0  0  0
   -5.3650   16.6540   70.0020 O   0  0  0  0  0  0  0  0  0  0  0  0
   -3.5150   20.0660   70.7340 C   0  0  0  0  0  0  0  0  0  0  0  0
   -2.3730   19.5160   71.4010 O   0  0  0  0  0  0  0  0  0  0  0  0
   -2.3910   20.8590   71.2410 C   0  0  0  0  0  0  0  0  0  0  0  0
   -1.5960   21.6280   70.7110 O   0  0  0  0  0  0  0  0  0  0  0  0
   -4.6290   20.1590   71.6380 N   0  0  0  0  0  0  0  0  0  0  0  0
   -4.9480   19.1240   72.2310 O   0  0  0  0  0  0  0  0  0  0  0  0
   -5.1980   21.2530   71.7210 O   0  0  0  0  0  0  0  0  0  0  0  0
   -9.3260   15.2700   66.5540 O   0  0  0  0  0  0  0  0  0  0  0  0
   -9.7780   14.2470   65.6300 C   0  0  0  0  0  0  0  0  0  0  0  0
  -10.0590   13.0040   66.2700 O   0  0  0  0  0  0  0  0  0  0  0  0
  -10.3180   11.9420   65.3470 C   0  0  0  0  0  0  0  0  0  0  0  0
  -11.3270   12.2410   64.2480 C   0  0  0  0  0  0  0  0  0  0  0  0
  -11.6590   11.4230   63.3990 O   0  0  0  0  0  0  0  0  0  0  0  0
  -11.7470   13.6920   64.1370 C   0  0  0  0  0  0  0  0  0  0  0  0
  -12.6130   14.0110   63.3340 O   0  0  0  0  0  0  0  0  0  0  0  0
  -11.0000   14.7690   64.8890 C   0  0  0  0  0  0  0  0  0  0  0  0
  -11.3000   15.9490   64.7670 O   0  0  0  0  0  0  0  0  0  0  0  0
  -10.6620   10.6550   66.0420 C   0  0  0  0  0  0  0  0  0  0  0  0
  -11.5910   10.7430   67.1220 O   0  0  0  0  0  0  0  0  0  0  0  0
  -10.1860   10.5050   67.3790 O   0  0  0  0  0  0  0  0  0  0  0  0
  1  2  2  0  0  0  0
  2  3  1  0  0  0  0
  2  7  1  0  0  0  0
  3  4  1  0  0  0  0
  4  5  1  0  0  0  0
  5  6  2  0  0  0  0
  5 15  1  0  0  0  0
  6  7  1  0  0  0  0
  6  8  1  0  0  0  0
  8  9  1  0  0  0  0
  8 13  2  0  0  0  0
  9 10  1  0  0  0  0
 10 11  2  0  0  0  0
 10 40  1  0  0  0  0
 11 12  1  0  0  0  0
 11 17  1  0  0  0  0
 12 13  1  0  0  0  0
 13 14  1  0  0  0  0
 14 15  2  0  0  0  0
 15 16  1  0  0  0  0
 17 18  2  0  0  0  0
 17 22  1  0  0  0  0
 18 19  1  0  0  0  0
 19 20  2  0  0  0  0
 20 21  1  0  0  0  0
 21 22  2  0  0  0  0
 21 23  1  0  0  0  0
 22 24  1  0  0  0  0
 23 26  2  0  0  0  0
 24 25  2  0  0  0  0
 25 26  1  0  0  0  0
 25 27  1  0  0  0  0
 26 28  1  0  0  0  0
 27 30  1  0  0  0  0
 27 32  2  0  0  0  0
 28 29  1  0  0  0  0
 29 30  1  0  0  0  0
 29 33  1  0  0  0  0
 30 31  2  0  0  0  0
 33 34  1  0  0  0  0
 33 35  1  0  0  0  0
 33 37  1  0  0  0  0
 34 35  1  0  0  0  0
 35 36  2  0  0  0  0
 37 38  2  0  0  0  0
 37 39  2  0  0  0  0
 40 41  1  0  0  0  0
 41 42  1  0  0  0  0
 41 48  1  0  0  0  0
 42 43  1  0  0  0  0
 43 44  1  0  0  0  0
 43 50  1  0  0  0  0
 44 45  2  0  0  0  0
 44 46  1  0  0  0  0
 46 47  2  0  0  0  0
 46 48  1  0  0  0  0
 48 49  2  0  0  0  0
 50 51  1  0  0  0  0
 50 52  1  0  0  0  0
 51 52  1  0  0  0  0
M  END
