
 OpenBabel11232003013D

 54 62  0  0  1  0  0  0  0  0999 V2000
  -11.1600   15.9860   67.1810 C   0  0  0  0  0  0  0  0  0  0  0  0
  -10.6490   17.0100   67.9090 C   0  0  0  0  0  0  0  0  0  0  0  0
  -10.8140   17.1250   69.2990 O   0  0  0  0  0  0  0  0  0  0  0  0
  -11.4230   16.0880   70.0070 C   0  0  0  0  0  0  0  0  0  0  0  0
  -11.9260   15.0220   69.3660 C   0  0  0  0  0  0  0  0  0  0  0  0
  -11.9320   14.9070   67.8800 C   0  0  0  0  0  0  0  0  0  0  0  0
  -12.5040   13.8450   70.0820 C   0  0  0  0  0  0  0  0  0  0  0  0
  -11.6100   12.7620   69.8900 O   0  0  0  0  0  0  0  0  0  0  0  0
  -11.8820   11.5920   70.5230 C   0  0  0  0  0  0  0  0  0  0  0  0
  -11.3110   10.5560   70.2210 O   0  0  0  0  0  0  0  0  0  0  0  0
  -12.7920   11.6520   71.5260 O   0  0  0  0  0  0  0  0  0  0  0  0
  -13.1880   12.8630   72.1630 C   0  0  0  0  0  0  0  0  0  0  0  0
  -12.5630   14.0590   71.5400 C   0  0  0  0  0  0  0  0  0  0  0  0
  -12.0820   15.1730   72.1410 C   0  0  0  0  0  0  0  0  0  0  0  0
  -11.4790   16.1770   71.3810 O   0  0  0  0  0  0  0  0  0  0  0  0
  -14.5810   13.0250   72.0050 O   0  0  0  0  0  0  0  0  0  0  0  0
   -9.7670   18.0410   67.3200 C   0  0  0  0  0  0  0  0  0  0  0  0
  -10.4020   18.7890   66.3880 N   0  0  0  0  0  0  0  0  0  0  0  0
   -9.7290   19.8480   65.9060 C   0  0  0  0  0  0  0  0  0  0  0  0
  -10.3440   20.5920   64.9760 F   0  0  0  0  0  0  0  0  0  0  0  0
   -8.4570   20.2100   66.3030 C   0  0  0  0  0  0  0  0  0  0  0  0
   -7.7650   19.4140   67.2300 C   0  0  0  0  0  0  0  0  0  0  0  0
   -8.4280   18.2580   67.7240 C   0  0  0  0  0  0  0  0  0  0  0  0
   -6.4500   19.7280   67.6910 C   0  0  0  0  0  0  0  0  0  0  0  0
   -7.7240   17.3950   68.5850 C   0  0  0  0  0  0  0  0  0  0  0  0
   -6.4240   17.6960   69.0030 C   0  0  0  0  0  0  0  0  0  0  0  0
   -5.6940   16.7490   69.8500 C   0  0  0  0  0  0  0  0  0  0  0  0
   -5.8110   18.8810   68.6200 C   0  0  0  0  0  0  0  0  0  0  0  0
   -6.1810   15.6820   70.1870 O   0  0  0  0  0  0  0  0  0  0  0  0
   -4.2970   17.1530   70.2580 C   0  0  0  0  0  0  0  0  0  0  0  0
   -3.4700   16.3100   70.5700 O   0  0  0  0  0  0  0  0  0  0  0  0
   -4.0650   18.6420   70.2460 C   0  0  0  0  0  0  0  0  0  0  0  0
   -4.5750   19.2810   69.0660 O   0  0  0  0  0  0  0  0  0  0  0  0
   -5.8630   20.9870   67.4330 N   0  0  0  0  0  0  0  0  0  0  0  0
   -4.5870   19.3040   71.4910 C   0  0  0  0  0  0  0  0  0  0  0  0
   -5.5170   18.5450   72.2960 O   0  0  0  0  0  0  0  0  0  0  0  0
   -3.6270   20.0340   72.2580 O   0  0  0  0  0  0  0  0  0  0  0  0
   -4.5770   20.7450   71.6430 C   0  0  0  0  0  0  0  0  0  0  0  0
   -4.4850   21.6660   70.8410 O   0  0  0  0  0  0  0  0  0  0  0  0
  -11.0140   15.8960   65.7930 O   0  0  0  0  0  0  0  0  0  0  0  0
  -10.7570   14.5940   65.2020 C   0  0  0  0  0  0  0  0  0  0  0  0
  -10.3970   13.6270   66.1960 O   0  0  0  0  0  0  0  0  0  0  0  0
  -10.0730   12.3620   65.7500 C   0  0  0  0  0  0  0  0  0  0  0  0
   -9.2190   11.5820   66.4280 C   0  0  0  0  0  0  0  0  0  0  0  0
  -10.7480   11.7680   64.5680 C   0  0  0  0  0  0  0  0  0  0  0  0
   -8.5540   11.9940   67.5560 O   0  0  0  0  0  0  0  0  0  0  0  0
  -11.8370   12.6420   63.9850 C   0  0  0  0  0  0  0  0  0  0  0  0
  -10.4630   10.6800   64.0950 O   0  0  0  0  0  0  0  0  0  0  0  0
  -11.9810   14.0790   64.4490 C   0  0  0  0  0  0  0  0  0  0  0  0
  -12.5960   12.1840   63.1450 O   0  0  0  0  0  0  0  0  0  0  0  0
  -12.9920   14.7180   64.2000 O   0  0  0  0  0  0  0  0  0  0  0  0
  -12.1910   15.4030   73.5910 C   0  0  0  0  0  0  0  0  0  0  0  0
  -13.3320   16.1040   74.0570 N   0  0  0  0  0  0  0  0  0  0  0  0
  -12.2660   16.7480   74.0430 N   0  0  0  0  0  0  0  0  0  0  0  0
  1 40  1  0  0  0  0
  1  2  2  0  0  0  0
  1  6  1  0  0  0  0
  2  3  1  0  0  0  0
  2 17  1  0  0  0  0
  3  4  1  0  0  0  0
  4  5  2  0  0  0  0
  4 15  1  0  0  0  0
  5  6  1  0  0  0  0
  5  7  1  0  0  0  0
  7  8  1  0  0  0  0
  7 13  1  0  0  0  0
  8  9  1  0  0  0  0
  9 10  2  0  0  0  0
  9 11  1  0  0  0  0
 11 12  1  0  0  0  0
 12 13  1  0  0  0  0
 12 16  1  0  0  0  0
 13 14  2  0  0  0  0
 14 15  1  0  0  0  0
 14 52  1  0  0  0  0
 17 18  2  0  0  0  0
 17 23  1  0  0  0  0
 18 19  1  0  0  0  0
 19 20  1  0  0  0  0
 19 21  2  0  0  0  0
 21 22  1  0  0  0  0
 22 23  2  0  0  0  0
 22 24  1  0  0  0  0
 23 25  1  0  0  0  0
 24 28  2  0  0  0  0
 24 34  1  0  0  0  0
 25 26  2  0  0  0  0
 26 27  1  0  0  0  0
 26 28  1  0  0  0  0
 27 29  2  0  0  0  0
 27 30  1  0  0  0  0
 28 33  1  0  0  0  0
 30 31  2  0  0  0  0
 30 32  1  0  0  0  0
 32 33  1  0  0  0  0
 32 35  1  0  0  0  0
 35 36  1  0  0  0  0
 35 37  1  0  0  0  0
 35 38  1  0  0  0  0
 37 38  1  0  0  0  0
 38 39  2  0  0  0  0
 40 41  1  0  0  0  0
 41 42  1  0  0  0  0
 41 49  1  0  0  0  0
 42 43  1  0  0  0  0
 43 44  2  0  0  0  0
 43 45  1  0  0  0  0
 44 46  1  0  0  0  0
 45 47  1  0  0  0  0
 45 48  2  0  0  0  0
 47 49  1  0  0  0  0
 47 50  2  0  0  0  0
 49 51  2  0  0  0  0
 52 53  1  0  0  0  0
 52 54  1  0  0  0  0
 53 54  2  0  0  0  0
M  CHG  1  15   1
M  END