
 OpenBabel11142001443D

 52 60  0  0  1  0  0  0  0  0999 V2000
  -10.9410   15.9230   67.3720 C   0  0  0  0  0  0  0  0  0  0  0  0
  -10.4370   16.9470   68.0940 C   0  0  0  0  0  0  0  0  0  0  0  0
  -10.5920   17.0640   69.4760 O   0  0  0  0  0  0  0  0  0  0  0  0
  -11.3460   16.1160   70.1520 C   0  0  0  0  0  0  0  0  0  0  0  0
  -11.8660   15.0460   69.5320 C   0  0  0  0  0  0  0  0  0  0  0  0
  -11.6860   14.8180   68.0750 C   0  0  0  0  0  0  0  0  0  0  0  0
  -12.6890   14.0290   70.2760 C   0  0  0  0  0  0  0  0  0  0  0  0
  -12.0750   12.7550   70.0760 O   0  0  0  0  0  0  0  0  0  0  0  0
  -12.3730   11.6900   70.8540 C   0  0  0  0  0  0  0  0  0  0  0  0
  -12.0100   10.5610   70.5470 O   0  0  0  0  0  0  0  0  0  0  0  0
  -13.0570   11.9210   72.0010 O   0  0  0  0  0  0  0  0  0  0  0  0
  -13.5360   13.2000   72.3890 C   0  0  0  0  0  0  0  0  0  0  0  0
  -12.7890   14.2910   71.7340 C   0  0  0  0  0  0  0  0  0  0  0  0
  -12.2420   15.3900   72.3040 C   0  0  0  0  0  0  0  0  0  0  0  0
  -11.5600   16.2920   71.4980 N   0  0  0  0  0  0  0  0  0  0  0  0
  -14.8990   13.3120   72.0120 O   0  0  0  0  0  0  0  0  0  0  0  0
   -9.6360   18.0240   67.4870 C   0  0  0  0  0  0  0  0  0  0  0  0
  -10.2950   18.7250   66.5370 N   0  0  0  0  0  0  0  0  0  0  0  0
   -9.6170   19.7310   65.9800 C   0  0  0  0  0  0  0  0  0  0  0  0
   -8.3680   20.1070   66.2860 N   0  0  0  0  0  0  0  0  0  0  0  0
   -7.7320   19.4010   67.2240 C   0  0  0  0  0  0  0  0  0  0  0  0
   -8.3160   18.3020   67.8730 C   0  0  0  0  0  0  0  0  0  0  0  0
   -6.4340   19.7720   67.5670 C   0  0  0  0  0  0  0  0  0  0  0  0
   -7.5590   17.5710   68.8220 C   0  0  0  0  0  0  0  0  0  0  0  0
   -6.2470   17.9480   69.1140 C   0  0  0  0  0  0  0  0  0  0  0  0
   -5.6870   19.0700   68.5140 C   0  0  0  0  0  0  0  0  0  0  0  0
   -5.4270   17.1290   70.0130 C   0  0  0  0  0  0  0  0  0  0  0  0
   -4.4310   19.5520   68.7650 O   0  0  0  0  0  0  0  0  0  0  0  0
   -3.7080   18.9690   69.8570 C   0  0  0  0  0  0  0  0  0  0  0  0
   -3.9650   17.4980   70.0650 C   0  0  0  0  0  0  0  0  0  0  0  0
   -3.1010   16.6540   70.2530 O   0  0  0  0  0  0  0  0  0  0  0  0
   -5.8720   16.1840   70.6420 O   0  0  0  0  0  0  0  0  0  0  0  0
   -3.9480   19.7290   71.1240 C   0  0  0  0  0  0  0  0  0  0  0  0
   -4.9080   19.1610   72.0460 O   0  0  0  0  0  0  0  0  0  0  0  0
   -2.7540   20.2430   71.7220 O   0  0  0  0  0  0  0  0  0  0  0  0
   -3.6560   21.1510   71.3010 C   0  0  0  0  0  0  0  0  0  0  0  0
   -4.2420   22.0000   71.9320 O   0  0  0  0  0  0  0  0  0  0  0  0
  -10.8340   15.8800   65.9830 O   0  0  0  0  0  0  0  0  0  0  0  0
  -10.6510   14.5840   65.3970 C   0  0  0  0  0  0  0  0  0  0  0  0
  -10.3080   13.5970   66.3790 O   0  0  0  0  0  0  0  0  0  0  0  0
   -9.9020   12.3880   65.8520 C   0  0  0  0  0  0  0  0  0  0  0  0
   -8.9200   11.6750   66.4180 C   0  0  0  0  0  0  0  0  0  0  0  0
  -10.6060   11.8290   64.6670 C   0  0  0  0  0  0  0  0  0  0  0  0
   -8.2220   12.1040   67.5190 O   0  0  0  0  0  0  0  0  0  0  0  0
  -11.7860   12.6720   64.2180 C   0  0  0  0  0  0  0  0  0  0  0  0
  -10.2690   10.8130   64.0850 O   0  0  0  0  0  0  0  0  0  0  0  0
  -11.9300   14.0850   64.7440 C   0  0  0  0  0  0  0  0  0  0  0  0
  -12.6010   12.2170   63.4310 O   0  0  0  0  0  0  0  0  0  0  0  0
  -12.9800   14.6990   64.6280 O   0  0  0  0  0  0  0  0  0  0  0  0
  -12.3200   15.7120   73.7460 C   0  0  0  0  0  0  0  0  0  0  0  0
  -11.9990   17.0210   74.2400 O   0  0  0  0  0  0  0  0  0  0  0  0
  -13.3580   16.5440   74.2920 O   0  0  0  0  0  0  0  0  0  0  0  0
  1 38  1  0  0  0  0
  1  2  2  0  0  0  0
  1  6  1  0  0  0  0
  2  3  1  0  0  0  0
  2 17  1  0  0  0  0
  3  4  1  0  0  0  0
  4  5  2  0  0  0  0
  4 15  1  0  0  0  0
  5  6  1  0  0  0  0
  5  7  1  0  0  0  0
  7  8  1  0  0  0  0
  7 13  1  0  0  0  0
  8  9  1  0  0  0  0
  9 10  2  0  0  0  0
  9 11  1  0  0  0  0
 11 12  1  0  0  0  0
 12 13  1  0  0  0  0
 12 16  1  0  0  0  0
 13 14  2  0  0  0  0
 14 15  1  0  0  0  0
 14 50  1  0  0  0  0
 17 18  2  0  0  0  0
 17 22  1  0  0  0  0
 18 19  1  0  0  0  0
 19 20  2  0  0  0  0
 20 21  1  0  0  0  0
 21 22  2  0  0  0  0
 21 23  1  0  0  0  0
 22 24  1  0  0  0  0
 23 26  2  0  0  0  0
 24 25  2  0  0  0  0
 25 26  1  0  0  0  0
 25 27  1  0  0  0  0
 26 28  1  0  0  0  0
 27 30  1  0  0  0  0
 27 32  2  0  0  0  0
 28 29  1  0  0  0  0
 29 30  1  0  0  0  0
 29 33  1  0  0  0  0
 30 31  2  0  0  0  0
 33 34  1  0  0  0  0
 33 35  1  0  0  0  0
 33 36  1  0  0  0  0
 35 36  1  0  0  0  0
 36 37  2  0  0  0  0
 38 39  1  0  0  0  0
 39 40  1  0  0  0  0
 39 47  1  0  0  0  0
 40 41  1  0  0  0  0
 41 42  2  0  0  0  0
 41 43  1  0  0  0  0
 42 44  1  0  0  0  0
 43 45  1  0  0  0  0
 43 46  2  0  0  0  0
 45 47  1  0  0  0  0
 45 48  2  0  0  0  0
 47 49  2  0  0  0  0
 50 51  1  0  0  0  0
 50 52  1  0  0  0  0
 51 52  1  0  0  0  0
M  END
