
 OpenBabel09252006403D

 56 65  0  0  1  0  0  0  0  0999 V2000
   -9.7580   15.2460   67.6680 C   0  0  0  0  0  0  0  0  0  0  0  0
   -9.7300   16.4940   68.1890 C   0  0  0  0  0  0  0  0  0  0  0  0
  -10.2570   16.8130   69.4330 O   0  0  0  0  0  0  0  0  0  0  0  0
  -10.9840   15.8590   70.1210 C   0  0  0  0  0  0  0  0  0  0  0  0
  -11.0190   14.5750   69.7260 C   0  0  0  0  0  0  0  0  0  0  0  0
  -10.2800   14.0970   68.5120 C   0  0  0  0  0  0  0  0  0  0  0  0
  -11.8830   13.6390   70.5110 C   0  0  0  0  0  0  0  0  0  0  0  0
  -12.0230   12.4020   70.1620 N   0  0  0  0  0  0  0  0  0  0  0  0
  -12.8660   11.5850   70.8970 C   0  0  0  0  0  0  0  0  0  0  0  0
  -13.0650   10.4470   70.4910 O   0  0  0  0  0  0  0  0  0  0  0  0
  -13.5040   11.9850   72.0560 N   0  0  0  0  0  0  0  0  0  0  0  0
  -13.3810   13.2110   72.4320 C   0  0  0  0  0  0  0  0  0  0  0  0
  -12.5880   14.1910   71.6940 C   0  0  0  0  0  0  0  0  0  0  0  0
  -12.4700   15.4960   72.0080 C   0  0  0  0  0  0  0  0  0  0  0  0
  -11.6790   16.3060   71.2130 N   0  0  0  0  0  0  0  0  0  0  0  0
   -9.1030   17.6470   67.5180 C   0  0  0  0  0  0  0  0  0  0  0  0
   -9.9510   18.3560   66.7460 N   0  0  0  0  0  0  0  0  0  0  0  0
   -9.4410   19.4500   66.1900 C   0  0  0  0  0  0  0  0  0  0  0  0
   -8.1920   19.9040   66.3540 N   0  0  0  0  0  0  0  0  0  0  0  0
   -7.3410   19.1940   67.1050 C   0  0  0  0  0  0  0  0  0  0  0  0
   -7.7490   17.9800   67.6870 C   0  0  0  0  0  0  0  0  0  0  0  0
   -6.0270   19.6690   67.3400 C   0  0  0  0  0  0  0  0  0  0  0  0
   -6.8180   17.1840   68.3820 C   0  0  0  0  0  0  0  0  0  0  0  0
   -5.5180   17.6360   68.5760 C   0  0  0  0  0  0  0  0  0  0  0  0
   -4.5530   16.7790   69.2780 C   0  0  0  0  0  0  0  0  0  0  0  0
   -5.1330   18.8920   68.1140 C   0  0  0  0  0  0  0  0  0  0  0  0
   -4.7620   15.5910   69.4740 O   0  0  0  0  0  0  0  0  0  0  0  0
   -3.2710   17.4300   69.7320 C   0  0  0  0  0  0  0  0  0  0  0  0
   -2.3800   16.7770   70.2590 O   0  0  0  0  0  0  0  0  0  0  0  0
   -3.2410   18.9280   69.5630 C   0  0  0  0  0  0  0  0  0  0  0  0
   -3.8900   19.4100   68.3790 O   0  0  0  0  0  0  0  0  0  0  0  0
   -3.7730   19.6100   70.7840 C   0  0  0  0  0  0  0  0  0  0  0  0
   -4.8620   18.9540   71.4780 O   0  0  0  0  0  0  0  0  0  0  0  0
   -2.7750   20.2000   71.6180 O   0  0  0  0  0  0  0  0  0  0  0  0
   -3.6520   21.0480   71.0370 C   0  0  0  0  0  0  0  0  0  0  0  0
   -4.4360   21.8080   71.5450 O   0  0  0  0  0  0  0  0  0  0  0  0
   -5.5890   21.0410   66.8130 C   0  0  0  0  0  0  0  0  0  0  0  0
   -4.2270   21.5430   67.3360 C   0  0  0  0  0  0  0  0  0  0  0  0
   -3.6160   22.3080   66.1670 C   0  0  0  0  0  0  0  0  0  0  0  0
   -4.0640   21.5160   64.9500 C   0  0  0  0  0  0  0  0  0  0  0  0
   -5.5050   21.1390   65.2730 C   0  0  0  0  0  0  0  0  0  0  0  0
   -9.1710   14.9690   66.4390 O   0  0  0  0  0  0  0  0  0  0  0  0
   -9.7730   13.9660   65.6030 C   0  0  0  0  0  0  0  0  0  0  0  0
  -10.2340   12.8480   66.3740 O   0  0  0  0  0  0  0  0  0  0  0  0
  -10.8960   11.8660   65.6520 C   0  0  0  0  0  0  0  0  0  0  0  0
  -11.1400   10.6510   66.1590 C   0  0  0  0  0  0  0  0  0  0  0  0
  -11.4730   12.1420   64.3120 C   0  0  0  0  0  0  0  0  0  0  0  0
  -10.7530   10.2730   67.4160 O   0  0  0  0  0  0  0  0  0  0  0  0
  -11.7790   13.6040   64.1120 C   0  0  0  0  0  0  0  0  0  0  0  0
  -11.6820   11.3050   63.4520 O   0  0  0  0  0  0  0  0  0  0  0  0
  -10.9380   14.6140   64.8540 C   0  0  0  0  0  0  0  0  0  0  0  0
  -12.7160   13.9440   63.4070 O   0  0  0  0  0  0  0  0  0  0  0  0
  -11.1960   15.8070   64.7870 O   0  0  0  0  0  0  0  0  0  0  0  0
  -13.1400   16.1620   73.1460 C   0  0  0  0  0  0  0  0  0  0  0  0
  -12.8740   15.8020   74.5100 O   0  0  0  0  0  0  0  0  0  0  0  0
  -12.4380   17.0770   74.0040 O   0  0  0  0  0  0  0  0  0  0  0  0
  1 42  1  0  0  0  0
  1  2  2  0  0  0  0
  1  6  1  0  0  0  0
  2  3  1  0  0  0  0
  2 16  1  0  0  0  0
  3  4  1  0  0  0  0
  4  5  2  0  0  0  0
  4 15  1  0  0  0  0
  5  6  1  0  0  0  0
  5  7  1  0  0  0  0
  7  8  2  0  0  0  0
  7 13  1  0  0  0  0
  8  9  1  0  0  0  0
  9 10  2  0  0  0  0
  9 11  1  0  0  0  0
 11 12  2  0  0  0  0
 12 13  1  0  0  0  0
 13 14  2  0  0  0  0
 14 15  1  0  0  0  0
 14 54  1  0  0  0  0
 16 17  2  0  0  0  0
 16 21  1  0  0  0  0
 17 18  1  0  0  0  0
 18 19  2  0  0  0  0
 19 20  1  0  0  0  0
 20 21  2  0  0  0  0
 20 22  1  0  0  0  0
 21 23  1  0  0  0  0
 22 26  2  0  0  0  0
 22 37  1  0  0  0  0
 23 24  2  0  0  0  0
 24 25  1  0  0  0  0
 24 26  1  0  0  0  0
 25 27  2  0  0  0  0
 25 28  1  0  0  0  0
 26 31  1  0  0  0  0
 28 29  2  0  0  0  0
 28 30  1  0  0  0  0
 30 31  1  0  0  0  0
 30 32  1  0  0  0  0
 32 33  1  0  0  0  0
 32 34  1  0  0  0  0
 32 35  1  0  0  0  0
 34 35  1  0  0  0  0
 35 36  2  0  0  0  0
 37 38  1  0  0  0  0
 37 41  1  0  0  0  0
 38 39  1  0  0  0  0
 39 40  1  0  0  0  0
 40 41  1  0  0  0  0
 42 43  1  0  0  0  0
 43 44  1  0  0  0  0
 43 51  1  0  0  0  0
 44 45  1  0  0  0  0
 45 46  2  0  0  0  0
 45 47  1  0  0  0  0
 46 48  1  0  0  0  0
 47 49  1  0  0  0  0
 47 50  2  0  0  0  0
 49 51  1  0  0  0  0
 49 52  2  0  0  0  0
 51 53  2  0  0  0  0
 54 55  1  0  0  0  0
 54 56  1  0  0  0  0
 55 56  1  0  0  0  0
M  END
