
 OpenBabel11232014583D

 54 62  0  0  1  0  0  0  0  0999 V2000
  -10.9040   15.6920   67.0190 C   0  0  0  0  0  0  0  0  0  0  0  0
  -10.5710   16.7540   67.7760 C   0  0  0  0  0  0  0  0  0  0  0  0
  -10.8320   16.8270   69.1410 O   0  0  0  0  0  0  0  0  0  0  0  0
  -11.4750   15.7630   69.7760 C   0  0  0  0  0  0  0  0  0  0  0  0
  -11.8160   14.6410   69.1060 C   0  0  0  0  0  0  0  0  0  0  0  0
  -11.5560   14.4790   67.6310 C   0  0  0  0  0  0  0  0  0  0  0  0
  -12.5200   13.4940   69.7890 C   0  0  0  0  0  0  0  0  0  0  0  0
  -11.7160   12.3400   69.6690 O   0  0  0  0  0  0  0  0  0  0  0  0
  -12.1940   11.2080   70.2620 C   0  0  0  0  0  0  0  0  0  0  0  0
  -11.8210   10.1080   69.8930 O   0  0  0  0  0  0  0  0  0  0  0  0
  -13.0820   11.3760   71.2780 O   0  0  0  0  0  0  0  0  0  0  0  0
  -13.2460   12.5600   71.8910 C   0  0  0  0  0  0  0  0  0  0  0  0
  -13.8860   12.7000   72.9220 O   0  0  0  0  0  0  0  0  0  0  0  0
  -12.6760   13.7320   71.2310 C   0  0  0  0  0  0  0  0  0  0  0  0
  -12.3290   14.8780   71.8570 C   0  0  0  0  0  0  0  0  0  0  0  0
  -11.7560   15.9070   71.1150 O   0  0  0  0  0  0  0  0  0  0  0  0
   -9.8980   17.9400   67.2030 C   0  0  0  0  0  0  0  0  0  0  0  0
  -10.5970   18.7340   66.2970 C   0  0  0  0  0  0  0  0  0  0  0  0
  -10.0170   19.8040   65.7420 N   0  0  0  0  0  0  0  0  0  0  0  0
  -10.7110   20.5420   64.8570 F   0  0  0  0  0  0  0  0  0  0  0  0
   -8.7780   20.1580   66.0150 N   0  0  0  0  0  0  0  0  0  0  0  0
   -8.0660   19.4700   66.9160 C   0  0  0  0  0  0  0  0  0  0  0  0
   -8.5920   18.3350   67.5600 C   0  0  0  0  0  0  0  0  0  0  0  0
   -6.7640   19.8780   67.2400 C   0  0  0  0  0  0  0  0  0  0  0  0
   -7.7890   17.6620   68.5140 C   0  0  0  0  0  0  0  0  0  0  0  0
   -6.4880   18.1000   68.8080 C   0  0  0  0  0  0  0  0  0  0  0  0
   -5.6450   17.3250   69.7220 C   0  0  0  0  0  0  0  0  0  0  0  0
   -5.9700   19.2220   68.1880 C   0  0  0  0  0  0  0  0  0  0  0  0
   -6.0590   16.2890   70.2170 O   0  0  0  0  0  0  0  0  0  0  0  0
   -4.2340   17.8250   69.9320 C   0  0  0  0  0  0  0  0  0  0  0  0
   -3.3620   17.0720   70.3390 O   0  0  0  0  0  0  0  0  0  0  0  0
   -4.0300   19.2850   69.5890 C   0  0  0  0  0  0  0  0  0  0  0  0
   -4.7210   19.7310   68.4080 O   0  0  0  0  0  0  0  0  0  0  0  0
   -6.2530   20.9740   66.5860 O   0  0  0  0  0  0  0  0  0  0  0  0
   -4.3740   20.1660   70.7440 C   0  0  0  0  0  0  0  0  0  0  0  0
   -5.5380   21.0180   70.5860 O   0  0  0  0  0  0  0  0  0  0  0  0
   -4.1910   19.5940   72.0340 O   0  0  0  0  0  0  0  0  0  0  0  0
   -3.3860   20.6270   71.7240 C   0  0  0  0  0  0  0  0  0  0  0  0
   -3.2830   21.7250   72.2290 O   0  0  0  0  0  0  0  0  0  0  0  0
  -10.5790   15.6780   65.6750 O   0  0  0  0  0  0  0  0  0  0  0  0
  -10.4000   14.3950   65.0360 C   0  0  0  0  0  0  0  0  0  0  0  0
  -10.0940   13.3900   65.9960 O   0  0  0  0  0  0  0  0  0  0  0  0
   -9.8860   12.1500   65.4130 C   0  0  0  0  0  0  0  0  0  0  0  0
   -8.9010   11.3440   65.8260 C   0  0  0  0  0  0  0  0  0  0  0  0
  -10.7760   11.6810   64.3130 C   0  0  0  0  0  0  0  0  0  0  0  0
   -8.0040   11.6970   66.8030 O   0  0  0  0  0  0  0  0  0  0  0  0
  -11.9120   12.6410   64.0210 C   0  0  0  0  0  0  0  0  0  0  0  0
  -10.5930   10.6710   63.6600 O   0  0  0  0  0  0  0  0  0  0  0  0
  -11.7060   14.1090   64.3110 C   0  0  0  0  0  0  0  0  0  0  0  0
  -12.9890   12.2360   63.6190 O   0  0  0  0  0  0  0  0  0  0  0  0
  -12.5190   14.9560   63.9830 O   0  0  0  0  0  0  0  0  0  0  0  0
  -12.4420   15.1510   73.3080 C   0  0  0  0  0  0  0  0  0  0  0  0
  -13.4400   16.1080   73.6820 N   0  0  0  0  0  0  0  0  0  0  0  0
  -12.2630   16.4970   73.7190 N   0  0  0  0  0  0  0  0  0  0  0  0
  1 40  1  0  0  0  0
  1  2  2  0  0  0  0
  1  6  1  0  0  0  0
  2  3  1  0  0  0  0
  2 17  1  0  0  0  0
  3  4  1  0  0  0  0
  4  5  2  0  0  0  0
  4 16  1  0  0  0  0
  5  6  1  0  0  0  0
  5  7  1  0  0  0  0
  7  8  1  0  0  0  0
  7 14  1  0  0  0  0
  8  9  1  0  0  0  0
  9 10  2  0  0  0  0
  9 11  1  0  0  0  0
 11 12  1  0  0  0  0
 12 13  2  0  0  0  0
 12 14  1  0  0  0  0
 14 15  2  0  0  0  0
 15 16  1  0  0  0  0
 15 52  1  0  0  0  0
 17 18  2  0  0  0  0
 17 23  1  0  0  0  0
 18 19  1  0  0  0  0
 19 20  1  0  0  0  0
 19 21  2  0  0  0  0
 21 22  1  0  0  0  0
 22 23  2  0  0  0  0
 22 24  1  0  0  0  0
 23 25  1  0  0  0  0
 24 28  2  0  0  0  0
 24 34  1  0  0  0  0
 25 26  2  0  0  0  0
 26 27  1  0  0  0  0
 26 28  1  0  0  0  0
 27 29  2  0  0  0  0
 27 30  1  0  0  0  0
 28 33  1  0  0  0  0
 30 31  2  0  0  0  0
 30 32  1  0  0  0  0
 32 33  1  0  0  0  0
 32 35  1  0  0  0  0
 35 36  1  0  0  0  0
 35 37  1  0  0  0  0
 35 38  1  0  0  0  0
 37 38  1  0  0  0  0
 38 39  2  0  0  0  0
 40 41  1  0  0  0  0
 41 42  1  0  0  0  0
 41 49  1  0  0  0  0
 42 43  1  0  0  0  0
 43 44  2  0  0  0  0
 43 45  1  0  0  0  0
 44 46  1  0  0  0  0
 45 47  1  0  0  0  0
 45 48  2  0  0  0  0
 47 49  1  0  0  0  0
 47 50  2  0  0  0  0
 49 51  2  0  0  0  0
 52 53  1  0  0  0  0
 52 54  1  0  0  0  0
 53 54  2  0  0  0  0
M  CHG  2  16   1  19   1
M  END