
 OpenBabel11242001193D

 54 63  0  0  1  0  0  0  0  0999 V2000
  -12.6990   11.2210   70.7460 C   0  0  0  0  0  0  0  0  0  0  0  0
  -13.4110   11.5070   71.8480 N   0  0  0  0  0  0  0  0  0  0  0  0
  -13.4830   12.8020   72.2240 C   0  0  0  0  0  0  0  0  0  0  0  0
  -12.8720   13.8250   71.5390 C   0  0  0  0  0  0  0  0  0  0  0  0
  -12.1750   13.4260   70.4160 C   0  0  0  0  0  0  0  0  0  0  0  0
  -12.0800   12.1530   70.0100 N   0  0  0  0  0  0  0  0  0  0  0  0
  -11.4690   14.4110   69.5950 C   0  0  0  0  0  0  0  0  0  0  0  0
  -11.6490   15.7120   69.8580 C   0  0  0  0  0  0  0  0  0  0  0  0
  -12.4890   16.1390   70.8570 N   0  0  0  0  0  0  0  0  0  0  0  0
  -12.8880   15.2640   71.9700 C   0  0  0  0  0  0  0  0  0  0  0  0
  -10.9990   16.6920   69.1310 O   0  0  0  0  0  0  0  0  0  0  0  0
  -10.2080   16.3300   68.0470 C   0  0  0  0  0  0  0  0  0  0  0  0
   -9.9990   15.0490   67.6720 C   0  0  0  0  0  0  0  0  0  0  0  0
  -10.5920   13.9230   68.4900 C   0  0  0  0  0  0  0  0  0  0  0  0
   -9.6780   17.5090   67.3450 C   0  0  0  0  0  0  0  0  0  0  0  0
  -10.5510   18.2410   66.5510 C   0  0  0  0  0  0  0  0  0  0  0  0
  -10.1730   19.4160   66.0390 N   0  0  0  0  0  0  0  0  0  0  0  0
  -11.0500   20.1160   65.2940 F   0  0  0  0  0  0  0  0  0  0  0  0
   -8.9850   19.9470   66.2730 N   0  0  0  0  0  0  0  0  0  0  0  0
   -8.0940   19.2810   67.0180 C   0  0  0  0  0  0  0  0  0  0  0  0
   -8.3820   18.0200   67.5660 C   0  0  0  0  0  0  0  0  0  0  0  0
   -6.8480   19.8540   67.2900 C   0  0  0  0  0  0  0  0  0  0  0  0
   -7.3750   17.3490   68.3080 C   0  0  0  0  0  0  0  0  0  0  0  0
   -6.1280   17.9470   68.5380 C   0  0  0  0  0  0  0  0  0  0  0  0
   -5.8740   19.2170   68.0600 C   0  0  0  0  0  0  0  0  0  0  0  0
   -5.0750   17.2300   69.2730 C   0  0  0  0  0  0  0  0  0  0  0  0
   -4.6830   19.8600   68.2740 O   0  0  0  0  0  0  0  0  0  0  0  0
   -4.0030   19.4700   69.4960 C   0  0  0  0  0  0  0  0  0  0  0  0
   -3.8750   18.0230   69.7560 C   0  0  0  0  0  0  0  0  0  0  0  0
   -2.9070   20.2670   69.8590 O   0  0  0  0  0  0  0  0  0  0  0  0
   -4.0920   20.3510   70.7080 C   0  0  0  0  0  0  0  0  0  0  0  0
   -2.9850   17.5220   70.4200 O   0  0  0  0  0  0  0  0  0  0  0  0
   -5.0930   21.3750   70.4140 O   0  0  0  0  0  0  0  0  0  0  0  0
   -4.1170   21.6960   71.2310 C   0  0  0  0  0  0  0  0  0  0  0  0
   -4.1410   22.1460   72.3520 O   0  0  0  0  0  0  0  0  0  0  0  0
   -5.1960   16.0410   69.5100 O   0  0  0  0  0  0  0  0  0  0  0  0
   -6.5880   21.0810   66.8080 F   0  0  0  0  0  0  0  0  0  0  0  0
   -9.2480   14.7590   66.5450 O   0  0  0  0  0  0  0  0  0  0  0  0
   -9.7770   13.8450   65.5580 C   0  0  0  0  0  0  0  0  0  0  0  0
  -10.0770   12.5920   66.1670 O   0  0  0  0  0  0  0  0  0  0  0  0
  -10.7010   11.6830   65.3270 C   0  0  0  0  0  0  0  0  0  0  0  0
  -10.4310   10.3740   65.4200 C   0  0  0  0  0  0  0  0  0  0  0  0
  -11.7240   12.1040   64.3230 C   0  0  0  0  0  0  0  0  0  0  0  0
   -9.5270    9.8210   66.2890 O   0  0  0  0  0  0  0  0  0  0  0  0
  -12.4430   11.3320   63.7140 O   0  0  0  0  0  0  0  0  0  0  0  0
  -11.8100   13.5980   64.1050 C   0  0  0  0  0  0  0  0  0  0  0  0
  -12.4810   14.0660   63.1980 O   0  0  0  0  0  0  0  0  0  0  0  0
  -11.0110   14.5170   64.9870 C   0  0  0  0  0  0  0  0  0  0  0  0
  -11.3450   15.6790   65.1780 O   0  0  0  0  0  0  0  0  0  0  0  0
  -11.9380   15.4740   73.1160 C   0  0  0  0  0  0  0  0  0  0  0  0
  -12.1870   16.6560   73.8870 O   0  0  0  0  0  0  0  0  0  0  0  0
  -12.5030   15.3480   74.4190 O   0  0  0  0  0  0  0  0  0  0  0  0
  -12.6250    9.8700   70.3580 N   0  0  0  0  0  0  0  0  0  0  0  0
  -12.7230    8.8660   71.3560 N   0  0  0  0  0  0  0  0  0  0  0  0
  1 53  1  0  0  0  0
  1  2  2  0  0  0  0
  1  6  1  0  0  0  0
  2  3  1  0  0  0  0
  3  4  2  0  0  0  0
  4  5  1  0  0  0  0
  4 10  1  0  0  0  0
  5  6  2  0  0  0  0
  5  7  1  0  0  0  0
  7  8  2  0  0  0  0
  7 14  1  0  0  0  0
  8  9  1  0  0  0  0
  8 11  1  0  0  0  0
  9 10  1  0  0  0  0
 10 50  1  0  0  0  0
 11 12  1  0  0  0  0
 12 13  2  0  0  0  0
 12 15  1  0  0  0  0
 13 14  1  0  0  0  0
 13 38  1  0  0  0  0
 15 16  2  0  0  0  0
 15 21  1  0  0  0  0
 16 17  1  0  0  0  0
 17 18  1  0  0  0  0
 17 19  2  0  0  0  0
 19 20  1  0  0  0  0
 20 21  2  0  0  0  0
 20 22  1  0  0  0  0
 21 23  1  0  0  0  0
 22 25  2  0  0  0  0
 22 37  1  0  0  0  0
 23 24  2  0  0  0  0
 24 25  1  0  0  0  0
 24 26  1  0  0  0  0
 25 27  1  0  0  0  0
 26 29  1  0  0  0  0
 26 36  2  0  0  0  0
 27 28  1  0  0  0  0
 28 29  1  0  0  0  0
 28 30  1  0  0  0  0
 28 31  1  0  0  0  0
 29 32  2  0  0  0  0
 30 31  1  0  0  0  0
 31 33  1  0  0  0  0
 31 34  1  0  0  0  0
 33 34  1  0  0  0  0
 34 35  2  0  0  0  0
 38 39  1  0  0  0  0
 39 40  1  0  0  0  0
 39 48  1  0  0  0  0
 40 41  1  0  0  0  0
 41 42  2  0  0  0  0
 41 43  1  0  0  0  0
 42 44  1  0  0  0  0
 43 45  2  0  0  0  0
 43 46  1  0  0  0  0
 46 47  2  0  0  0  0
 46 48  1  0  0  0  0
 48 49  2  0  0  0  0
 50 51  1  0  0  0  0
 50 52  1  0  0  0  0
 51 52  1  0  0  0  0
 53 54  1  0  0  0  0
M  CHG  1  17   1
M  END