
 OpenBabel09212009273D

 48 55  0  0  1  0  0  0  0  0999 V2000
  -10.3680   15.6050   67.7400 C   0  0  0  0  0  0  0  0  0  0  0  0
  -10.5760   16.8010   68.3350 C   0  0  0  0  0  0  0  0  0  0  0  0
  -11.4250   16.9850   69.4280 O   0  0  0  0  0  0  0  0  0  0  0  0
  -11.9390   15.8790   70.0730 C   0  0  0  0  0  0  0  0  0  0  0  0
  -11.7020   14.5990   69.6160 C   0  0  0  0  0  0  0  0  0  0  0  0
  -10.9690   14.3660   68.3410 C   0  0  0  0  0  0  0  0  0  0  0  0
  -12.1910   13.5420   70.3810 C   0  0  0  0  0  0  0  0  0  0  0  0
  -11.9200   12.2410   69.9390 O   0  0  0  0  0  0  0  0  0  0  0  0
  -12.4480   11.1370   70.5720 C   0  0  0  0  0  0  0  0  0  0  0  0
  -12.2180    9.9640   70.1070 N   0  0  0  0  0  0  0  0  0  0  0  0
  -13.2200   11.3090   71.6590 O   0  0  0  0  0  0  0  0  0  0  0  0
  -13.3520   12.5720   72.3260 C   0  0  0  0  0  0  0  0  0  0  0  0
  -12.8960   13.7480   71.5470 C   0  0  0  0  0  0  0  0  0  0  0  0
  -13.0890   15.0710   71.9120 C   0  0  0  0  0  0  0  0  0  0  0  0
  -12.6370   16.1270   71.2020 N   0  0  0  0  0  0  0  0  0  0  0  0
  -13.7540   15.4290   73.0470 O   0  0  0  0  0  0  0  0  0  0  0  0
   -9.9190   18.0510   67.8880 C   0  0  0  0  0  0  0  0  0  0  0  0
  -10.7710   18.9580   67.3390 N   0  0  0  0  0  0  0  0  0  0  0  0
  -10.2420   20.1250   66.9170 C   0  0  0  0  0  0  0  0  0  0  0  0
   -8.9040   20.4550   67.0290 C   0  0  0  0  0  0  0  0  0  0  0  0
   -8.0290   19.5410   67.6140 C   0  0  0  0  0  0  0  0  0  0  0  0
   -8.5210   18.2880   68.0490 C   0  0  0  0  0  0  0  0  0  0  0  0
   -6.6660   19.8770   67.7670 C   0  0  0  0  0  0  0  0  0  0  0  0
   -7.5760   17.3820   68.5890 C   0  0  0  0  0  0  0  0  0  0  0  0
   -6.2250   17.7470   68.7330 C   0  0  0  0  0  0  0  0  0  0  0  0
   -5.7600   19.0110   68.3800 C   0  0  0  0  0  0  0  0  0  0  0  0
   -5.2510   16.7860   69.2620 C   0  0  0  0  0  0  0  0  0  0  0  0
   -4.4170   19.3700   68.4960 N   0  0  0  0  0  0  0  0  0  0  0  0
   -3.6320   18.7730   69.5970 C   0  0  0  0  0  0  0  0  0  0  0  0
   -3.9980   17.3390   69.9100 C   0  0  0  0  0  0  0  0  0  0  0  0
   -3.4100   16.6710   70.7570 O   0  0  0  0  0  0  0  0  0  0  0  0
   -5.4620   15.5840   69.2460 O   0  0  0  0  0  0  0  0  0  0  0  0
   -3.6580   19.6130   70.8730 C   0  0  0  0  0  0  0  0  0  0  0  0
   -4.6940   19.3040   71.8260 O   0  0  0  0  0  0  0  0  0  0  0  0
   -2.3530   19.7970   71.4510 O   0  0  0  0  0  0  0  0  0  0  0  0
   -3.0310   20.9830   71.0200 C   0  0  0  0  0  0  0  0  0  0  0  0
   -9.5030   15.4600   66.6580 O   0  0  0  0  0  0  0  0  0  0  0  0
   -9.7790   14.4290   65.7080 C   0  0  0  0  0  0  0  0  0  0  0  0
  -10.0520   13.1600   66.3880 N   0  0  0  0  0  0  0  0  0  0  0  0
   -9.9780   11.9980   65.4720 C   0  0  0  0  0  0  0  0  0  0  0  0
  -10.7700   12.2410   64.2020 C   0  0  0  0  0  0  0  0  0  0  0  0
  -11.5120   13.5510   64.0980 C   0  0  0  0  0  0  0  0  0  0  0  0
  -10.7460   11.4070   63.2010 N   0  0  0  0  0  0  0  0  0  0  0  0
  -10.9890   14.7580   64.8430 C   0  0  0  0  0  0  0  0  0  0  0  0
  -12.4420   13.6270   63.2990 O   0  0  0  0  0  0  0  0  0  0  0  0
  -11.4330   15.8850   64.6220 O   0  0  0  0  0  0  0  0  0  0  0  0
  -10.5460   10.7540   66.1720 C   0  0  0  0  0  0  0  0  0  0  0  0
  -11.6720   11.1050   66.9790 O   0  0  0  0  0  0  0  0  0  0  0  0
  1 37  1  0  0  0  0
  1  2  2  0  0  0  0
  1  6  1  0  0  0  0
  2  3  1  0  0  0  0
  2 17  1  0  0  0  0
  3  4  1  0  0  0  0
  4  5  2  0  0  0  0
  4 15  1  0  0  0  0
  5  6  1  0  0  0  0
  5  7  1  0  0  0  0
  7  8  1  0  0  0  0
  7 13  2  0  0  0  0
  8  9  1  0  0  0  0
  9 10  2  0  0  0  0
  9 11  1  0  0  0  0
 11 12  1  0  0  0  0
 12 13  1  0  0  0  0
 13 14  1  0  0  0  0
 14 15  2  0  0  0  0
 14 16  1  0  0  0  0
 17 18  2  0  0  0  0
 17 22  1  0  0  0  0
 18 19  1  0  0  0  0
 19 20  2  0  0  0  0
 20 21  1  0  0  0  0
 21 22  2  0  0  0  0
 21 23  1  0  0  0  0
 22 24  1  0  0  0  0
 23 26  2  0  0  0  0
 24 25  2  0  0  0  0
 25 26  1  0  0  0  0
 25 27  1  0  0  0  0
 26 28  1  0  0  0  0
 27 30  1  0  0  0  0
 27 32  2  0  0  0  0
 28 29  1  0  0  0  0
 29 30  1  0  0  0  0
 29 33  1  0  0  0  0
 30 31  2  0  0  0  0
 33 34  1  0  0  0  0
 33 35  1  0  0  0  0
 33 36  1  0  0  0  0
 35 36  1  0  0  0  0
 37 38  1  0  0  0  0
 38 39  1  0  0  0  0
 38 44  1  0  0  0  0
 39 40  1  0  0  0  0
 40 41  1  0  0  0  0
 40 47  1  0  0  0  0
 41 42  1  0  0  0  0
 41 43  2  0  0  0  0
 42 44  1  0  0  0  0
 42 45  2  0  0  0  0
 44 46  2  0  0  0  0
 47 48  1  0  0  0  0
M  END
