
 OpenBabel11152013413D

 53 61  0  0  1  0  0  0  0  0999 V2000
  -11.0800   16.2470   67.5630 C   0  0  0  0  0  0  0  0  0  0  0  0
  -10.5680   17.2300   68.3320 C   0  0  0  0  0  0  0  0  0  0  0  0
  -10.7630   17.2930   69.7090 O   0  0  0  0  0  0  0  0  0  0  0  0
  -11.4550   16.2760   70.3580 C   0  0  0  0  0  0  0  0  0  0  0  0
  -11.9830   15.2380   69.6870 C   0  0  0  0  0  0  0  0  0  0  0  0
  -11.8730   15.1290   68.1970 C   0  0  0  0  0  0  0  0  0  0  0  0
  -12.7310   14.1440   70.3880 C   0  0  0  0  0  0  0  0  0  0  0  0
  -12.0740   12.9150   70.0840 O   0  0  0  0  0  0  0  0  0  0  0  0
  -12.3290   11.7870   70.7910 C   0  0  0  0  0  0  0  0  0  0  0  0
  -11.9360   10.6950   70.4040 O   0  0  0  0  0  0  0  0  0  0  0  0
  -12.9990   11.9190   71.9600 O   0  0  0  0  0  0  0  0  0  0  0  0
  -13.4510   13.1630   72.4790 C   0  0  0  0  0  0  0  0  0  0  0  0
  -12.7600   14.3110   71.8540 C   0  0  0  0  0  0  0  0  0  0  0  0
  -12.2190   15.3790   72.4770 C   0  0  0  0  0  0  0  0  0  0  0  0
  -11.5750   16.3800   71.7390 O   0  0  0  0  0  0  0  0  0  0  0  0
  -14.8360   13.2870   72.2120 O   0  0  0  0  0  0  0  0  0  0  0  0
   -9.7160   18.3130   67.8020 C   0  0  0  0  0  0  0  0  0  0  0  0
  -10.3690   19.1830   67.0030 N   0  0  0  0  0  0  0  0  0  0  0  0
   -9.7220   20.1920   66.4950 N   0  0  0  0  0  0  0  0  0  0  0  0
   -8.4530   20.4070   66.7510 N   0  0  0  0  0  0  0  0  0  0  0  0
   -7.7570   19.5740   67.5400 C   0  0  0  0  0  0  0  0  0  0  0  0
   -8.3590   18.4460   68.0960 C   0  0  0  0  0  0  0  0  0  0  0  0
   -6.4080   19.8220   67.8430 C   0  0  0  0  0  0  0  0  0  0  0  0
   -7.5900   17.5530   68.8900 C   0  0  0  0  0  0  0  0  0  0  0  0
   -6.2500   17.8340   69.1740 C   0  0  0  0  0  0  0  0  0  0  0  0
   -5.4560   16.9230   70.0090 C   0  0  0  0  0  0  0  0  0  0  0  0
   -5.6630   18.9900   68.6850 C   0  0  0  0  0  0  0  0  0  0  0  0
   -5.9070   15.8800   70.4480 O   0  0  0  0  0  0  0  0  0  0  0  0
   -4.0430   17.3600   70.3190 C   0  0  0  0  0  0  0  0  0  0  0  0
   -3.1970   16.5560   70.6830 O   0  0  0  0  0  0  0  0  0  0  0  0
   -3.8180   18.8430   70.1810 C   0  0  0  0  0  0  0  0  0  0  0  0
   -4.3850   19.3910   68.9770 O   0  0  0  0  0  0  0  0  0  0  0  0
   -5.7950   20.9400   67.3170 O   0  0  0  0  0  0  0  0  0  0  0  0
   -4.2950   19.5980   71.3900 C   0  0  0  0  0  0  0  0  0  0  0  0
   -5.5210   19.1650   72.0100 O   0  0  0  0  0  0  0  0  0  0  0  0
   -3.2880   20.0210   72.3170 O   0  0  0  0  0  0  0  0  0  0  0  0
   -3.8820   20.9800   71.5860 C   0  0  0  0  0  0  0  0  0  0  0  0
   -3.4100   21.7950   70.8360 O   0  0  0  0  0  0  0  0  0  0  0  0
  -10.8260   16.2000   66.1940 O   0  0  0  0  0  0  0  0  0  0  0  0
  -10.3770   14.9460   65.6770 C   0  0  0  0  0  0  0  0  0  0  0  0
   -9.9290   14.0950   66.7270 O   0  0  0  0  0  0  0  0  0  0  0  0
   -9.4470   12.8700   66.3110 C   0  0  0  0  0  0  0  0  0  0  0  0
   -8.4750   12.2620   67.0010 C   0  0  0  0  0  0  0  0  0  0  0  0
  -10.0060   12.1710   65.1030 C   0  0  0  0  0  0  0  0  0  0  0  0
   -7.8860   12.8260   68.1040 O   0  0  0  0  0  0  0  0  0  0  0  0
  -10.9830   12.9480   64.2240 C   0  0  0  0  0  0  0  0  0  0  0  0
   -9.6260   11.0370   64.8080 O   0  0  0  0  0  0  0  0  0  0  0  0
  -11.4880   14.1950   64.9390 C   0  0  0  0  0  0  0  0  0  0  0  0
  -12.2810   11.8860   63.3260 P   0  0  0  0  0  0  0  0  0  0  0  0
  -12.6520   14.5820   64.8840 O   0  0  0  0  0  0  0  0  0  0  0  0
  -12.2480   15.5960   73.9390 C   0  0  0  0  0  0  0  0  0  0  0  0
  -12.1600   16.9110   74.5100 O   0  0  0  0  0  0  0  0  0  0  0  0
  -13.3860   16.1640   74.6120 O   0  0  0  0  0  0  0  0  0  0  0  0
  1 39  1  0  0  0  0
  1  2  2  0  0  0  0
  1  6  1  0  0  0  0
  2  3  1  0  0  0  0
  2 17  1  0  0  0  0
  3  4  1  0  0  0  0
  4  5  2  0  0  0  0
  4 15  1  0  0  0  0
  5  6  1  0  0  0  0
  5  7  1  0  0  0  0
  7  8  1  0  0  0  0
  7 13  1  0  0  0  0
  8  9  1  0  0  0  0
  9 10  2  0  0  0  0
  9 11  1  0  0  0  0
 11 12  1  0  0  0  0
 12 13  1  0  0  0  0
 12 16  1  0  0  0  0
 13 14  2  0  0  0  0
 14 15  1  0  0  0  0
 14 51  1  0  0  0  0
 17 18  2  0  0  0  0
 17 22  1  0  0  0  0
 18 19  1  0  0  0  0
 19 20  2  0  0  0  0
 20 21  1  0  0  0  0
 21 22  2  0  0  0  0
 21 23  1  0  0  0  0
 22 24  1  0  0  0  0
 23 27  2  0  0  0  0
 23 33  1  0  0  0  0
 24 25  2  0  0  0  0
 25 26  1  0  0  0  0
 25 27  1  0  0  0  0
 26 28  2  0  0  0  0
 26 29  1  0  0  0  0
 27 32  1  0  0  0  0
 29 30  2  0  0  0  0
 29 31  1  0  0  0  0
 31 32  1  0  0  0  0
 31 34  1  0  0  0  0
 34 35  1  0  0  0  0
 34 36  1  0  0  0  0
 34 37  1  0  0  0  0
 36 37  1  0  0  0  0
 37 38  2  0  0  0  0
 39 40  1  0  0  0  0
 40 41  1  0  0  0  0
 40 48  1  0  0  0  0
 41 42  1  0  0  0  0
 42 43  2  0  0  0  0
 42 44  1  0  0  0  0
 43 45  1  0  0  0  0
 44 46  1  0  0  0  0
 44 47  2  0  0  0  0
 46 48  1  0  0  0  0
 46 49  1  0  0  0  0
 48 50  2  0  0  0  0
 51 52  1  0  0  0  0
 51 53  1  0  0  0  0
 52 53  1  0  0  0  0
M  END
