
 OpenBabel11262000023D

 54 62  0  0  1  0  0  0  0  0999 V2000
   -9.9260   15.5850   67.7730 C   0  0  0  0  0  0  0  0  0  0  0  0
  -10.0670   16.8120   68.3270 C   0  0  0  0  0  0  0  0  0  0  0  0
  -10.7210   17.0510   69.5330 O   0  0  0  0  0  0  0  0  0  0  0  0
  -11.2990   16.0050   70.2100 C   0  0  0  0  0  0  0  0  0  0  0  0
  -11.2320   14.7160   69.7460 C   0  0  0  0  0  0  0  0  0  0  0  0
  -10.5100   14.3880   68.4830 C   0  0  0  0  0  0  0  0  0  0  0  0
  -11.8930   13.7490   70.4920 C   0  0  0  0  0  0  0  0  0  0  0  0
  -11.8120   12.4250   70.0490 O   0  0  0  0  0  0  0  0  0  0  0  0
  -12.5270   11.3780   70.6210 C   0  0  0  0  0  0  0  0  0  0  0  0
  -12.4650   10.2470   70.1530 O   0  0  0  0  0  0  0  0  0  0  0  0
  -13.3200   11.6880   71.6700 O   0  0  0  0  0  0  0  0  0  0  0  0
  -13.2830   12.9420   72.3540 C   0  0  0  0  0  0  0  0  0  0  0  0
  -12.5910   14.0510   71.6420 C   0  0  0  0  0  0  0  0  0  0  0  0
  -12.5630   15.3780   72.0910 C   0  0  0  0  0  0  0  0  0  0  0  0
  -11.9430   16.3410   71.3470 N   0  0  0  0  0  0  0  0  0  0  0  0
  -14.6300   13.3080   72.6250 O   0  0  0  0  0  0  0  0  0  0  0  0
   -9.5230   18.0680   67.7680 C   0  0  0  0  0  0  0  0  0  0  0  0
  -10.3470   18.6600   66.8820 N   0  0  0  0  0  0  0  0  0  0  0  0
   -9.8320   19.6840   66.1960 C   0  0  0  0  0  0  0  0  0  0  0  0
  -10.6200   20.2710   65.2860 F   0  0  0  0  0  0  0  0  0  0  0  0
   -8.5860   20.1550   66.3140 N   0  0  0  0  0  0  0  0  0  0  0  0
   -7.7750   19.5610   67.1990 C   0  0  0  0  0  0  0  0  0  0  0  0
   -8.1960   18.4820   67.9890 C   0  0  0  0  0  0  0  0  0  0  0  0
   -6.4550   20.0030   67.3330 C   0  0  0  0  0  0  0  0  0  0  0  0
   -7.2800   17.8860   68.8980 C   0  0  0  0  0  0  0  0  0  0  0  0
   -5.9670   18.3630   69.0060 C   0  0  0  0  0  0  0  0  0  0  0  0
   -5.0190   17.7340   69.9330 C   0  0  0  0  0  0  0  0  0  0  0  0
   -5.5480   19.4280   68.2290 C   0  0  0  0  0  0  0  0  0  0  0  0
   -5.3530   16.8250   70.6760 O   0  0  0  0  0  0  0  0  0  0  0  0
   -3.6100   18.2790   69.9390 C   0  0  0  0  0  0  0  0  0  0  0  0
   -2.6830   17.6170   70.3840 O   0  0  0  0  0  0  0  0  0  0  0  0
   -3.4960   19.6880   69.4210 C   0  0  0  0  0  0  0  0  0  0  0  0
   -4.2850   19.9550   68.2580 O   0  0  0  0  0  0  0  0  0  0  0  0
   -6.0300   21.0280   66.5740 F   0  0  0  0  0  0  0  0  0  0  0  0
   -3.7920   20.6970   70.4930 C   0  0  0  0  0  0  0  0  0  0  0  0
   -5.0580   21.3900   70.4080 O   0  0  0  0  0  0  0  0  0  0  0  0
   -3.4090   20.3560   71.8200 O   0  0  0  0  0  0  0  0  0  0  0  0
   -2.7110   21.3280   71.2260 C   0  0  0  0  0  0  0  0  0  0  0  0
   -1.5110   21.4050   71.0150 O   0  0  0  0  0  0  0  0  0  0  0  0
   -9.2800   15.4070   66.5500 O   0  0  0  0  0  0  0  0  0  0  0  0
   -9.7690   14.3930   65.6480 C   0  0  0  0  0  0  0  0  0  0  0  0
  -10.2580   13.2480   66.3620 O   0  0  0  0  0  0  0  0  0  0  0  0
  -10.5990   12.1780   65.5570 C   0  0  0  0  0  0  0  0  0  0  0  0
  -10.4540   10.9100   65.9620 C   0  0  0  0  0  0  0  0  0  0  0  0
  -11.2160   12.4200   64.2290 C   0  0  0  0  0  0  0  0  0  0  0  0
   -9.9210   10.5680   67.1780 O   0  0  0  0  0  0  0  0  0  0  0  0
  -11.6740   13.8520   64.0660 C   0  0  0  0  0  0  0  0  0  0  0  0
  -11.3180   11.5910   63.3430 O   0  0  0  0  0  0  0  0  0  0  0  0
  -10.9050   14.9430   64.7860 C   0  0  0  0  0  0  0  0  0  0  0  0
  -12.6690   14.1030   63.4060 O   0  0  0  0  0  0  0  0  0  0  0  0
  -11.1850   16.1200   64.6210 O   0  0  0  0  0  0  0  0  0  0  0  0
  -13.1830   15.8010   73.4090 C   0  0  0  0  0  0  0  0  0  0  0  0
  -12.4870   15.4160   74.6050 O   0  0  0  0  0  0  0  0  0  0  0  0
  -12.4990   16.7970   74.1880 O   0  0  0  0  0  0  0  0  0  0  0  0
  1 40  1  0  0  0  0
  1  2  2  0  0  0  0
  1  6  1  0  0  0  0
  2  3  1  0  0  0  0
  2 17  1  0  0  0  0
  3  4  1  0  0  0  0
  4  5  2  0  0  0  0
  4 15  1  0  0  0  0
  5  6  1  0  0  0  0
  5  7  1  0  0  0  0
  7  8  1  0  0  0  0
  7 13  2  0  0  0  0
  8  9  1  0  0  0  0
  9 10  2  0  0  0  0
  9 11  1  0  0  0  0
 11 12  1  0  0  0  0
 12 13  1  0  0  0  0
 12 16  1  0  0  0  0
 13 14  1  0  0  0  0
 14 15  2  0  0  0  0
 14 52  1  0  0  0  0
 17 18  2  0  0  0  0
 17 23  1  0  0  0  0
 18 19  1  0  0  0  0
 19 20  1  0  0  0  0
 19 21  2  0  0  0  0
 21 22  1  0  0  0  0
 22 23  2  0  0  0  0
 22 24  1  0  0  0  0
 23 25  1  0  0  0  0
 24 28  2  0  0  0  0
 24 34  1  0  0  0  0
 25 26  2  0  0  0  0
 26 27  1  0  0  0  0
 26 28  1  0  0  0  0
 27 29  2  0  0  0  0
 27 30  1  0  0  0  0
 28 33  1  0  0  0  0
 30 31  2  0  0  0  0
 30 32  1  0  0  0  0
 32 33  1  0  0  0  0
 32 35  1  0  0  0  0
 35 36  1  0  0  0  0
 35 37  1  0  0  0  0
 35 38  1  0  0  0  0
 37 38  1  0  0  0  0
 38 39  2  0  0  0  0
 40 41  1  0  0  0  0
 41 42  1  0  0  0  0
 41 49  1  0  0  0  0
 42 43  1  0  0  0  0
 43 44  2  0  0  0  0
 43 45  1  0  0  0  0
 44 46  1  0  0  0  0
 45 47  1  0  0  0  0
 45 48  2  0  0  0  0
 47 49  1  0  0  0  0
 47 50  2  0  0  0  0
 49 51  2  0  0  0  0
 52 53  1  0  0  0  0
 52 54  1  0  0  0  0
 53 54  1  0  0  0  0
M  END
