
 OpenBabel09252006103D

 54 62  0  0  1  0  0  0  0  0999 V2000
  -10.1140   16.3410   68.0590 C   0  0  0  0  0  0  0  0  0  0  0  0
   -9.9180   15.1050   67.5400 C   0  0  0  0  0  0  0  0  0  0  0  0
  -10.5240   13.9060   68.2330 C   0  0  0  0  0  0  0  0  0  0  0  0
  -11.2690   14.2500   69.4720 C   0  0  0  0  0  0  0  0  0  0  0  0
  -11.3710   15.5030   69.9360 C   0  0  0  0  0  0  0  0  0  0  0  0
  -10.8090   16.5740   69.2490 O   0  0  0  0  0  0  0  0  0  0  0  0
  -12.0460   15.7720   71.1020 N   0  0  0  0  0  0  0  0  0  0  0  0
  -12.7260   14.8090   71.8390 C   0  0  0  0  0  0  0  0  0  0  0  0
  -12.7050   13.5250   71.4300 C   0  0  0  0  0  0  0  0  0  0  0  0
  -11.9550   13.1550   70.2120 C   0  0  0  0  0  0  0  0  0  0  0  0
  -11.9000   11.9370   69.7840 N   0  0  0  0  0  0  0  0  0  0  0  0
  -12.5600   10.9480   70.4910 C   0  0  0  0  0  0  0  0  0  0  0  0
  -12.4780    9.7980   70.0800 O   0  0  0  0  0  0  0  0  0  0  0  0
  -13.3030   11.1900   71.6300 N   0  0  0  0  0  0  0  0  0  0  0  0
  -13.3780   12.3980   72.0740 C   0  0  0  0  0  0  0  0  0  0  0  0
   -9.5940   17.5720   67.4250 C   0  0  0  0  0  0  0  0  0  0  0  0
   -8.3390   18.1340   67.7470 C   0  0  0  0  0  0  0  0  0  0  0  0
   -7.3920   17.5350   68.6040 C   0  0  0  0  0  0  0  0  0  0  0  0
   -8.0450   19.3760   67.1540 C   0  0  0  0  0  0  0  0  0  0  0  0
   -6.1970   18.1880   68.9170 C   0  0  0  0  0  0  0  0  0  0  0  0
   -5.9260   19.4510   68.4020 C   0  0  0  0  0  0  0  0  0  0  0  0
   -5.2260   17.5210   69.7940 C   0  0  0  0  0  0  0  0  0  0  0  0
   -6.8430   20.0520   67.5000 C   0  0  0  0  0  0  0  0  0  0  0  0
   -4.7900   20.1580   68.7270 O   0  0  0  0  0  0  0  0  0  0  0  0
   -4.0560   19.7540   69.8910 C   0  0  0  0  0  0  0  0  0  0  0  0
   -3.9430   18.2630   70.0650 C   0  0  0  0  0  0  0  0  0  0  0  0
   -2.9320   17.6770   70.4240 O   0  0  0  0  0  0  0  0  0  0  0  0
   -5.4340   16.4170   70.2710 O   0  0  0  0  0  0  0  0  0  0  0  0
   -8.9160   19.9220   66.2860 N   0  0  0  0  0  0  0  0  0  0  0  0
  -10.0530   19.2720   65.9980 C   0  0  0  0  0  0  0  0  0  0  0  0
  -10.4470   18.1230   66.5390 N   0  0  0  0  0  0  0  0  0  0  0  0
   -6.4660   21.3780   66.9140 C   0  0  0  0  0  0  0  0  0  0  0  0
   -5.6430   21.6880   65.9000 C   0  0  0  0  0  0  0  0  0  0  0  0
   -4.9110   20.8350   65.1280 O   0  0  0  0  0  0  0  0  0  0  0  0
   -4.6090   20.3920   71.1260 C   0  0  0  0  0  0  0  0  0  0  0  0
   -6.0410   20.2930   71.3190 O   0  0  0  0  0  0  0  0  0  0  0  0
   -3.8160   20.1780   72.2960 O   0  0  0  0  0  0  0  0  0  0  0  0
   -3.9380   21.4520   71.8780 C   0  0  0  0  0  0  0  0  0  0  0  0
   -4.3980   22.4110   72.4540 O   0  0  0  0  0  0  0  0  0  0  0  0
   -9.1950   14.9220   66.3570 O   0  0  0  0  0  0  0  0  0  0  0  0
   -9.8010   14.1980   65.2630 C   0  0  0  0  0  0  0  0  0  0  0  0
   -9.9420   12.8220   65.6060 O   0  0  0  0  0  0  0  0  0  0  0  0
  -10.9150   12.0920   64.9690 C   0  0  0  0  0  0  0  0  0  0  0  0
  -10.6770   10.8360   64.5780 C   0  0  0  0  0  0  0  0  0  0  0  0
  -12.2790   12.6520   64.7990 C   0  0  0  0  0  0  0  0  0  0  0  0
   -9.4740   10.1950   64.7170 O   0  0  0  0  0  0  0  0  0  0  0  0
  -13.2540   12.0330   64.4140 O   0  0  0  0  0  0  0  0  0  0  0  0
  -12.3340   14.1220   65.1300 C   0  0  0  0  0  0  0  0  0  0  0  0
  -13.3400   14.6370   65.5880 O   0  0  0  0  0  0  0  0  0  0  0  0
  -11.0900   14.9330   64.8960 C   0  0  0  0  0  0  0  0  0  0  0  0
  -11.1550   16.0420   64.3860 O   0  0  0  0  0  0  0  0  0  0  0  0
  -13.4550   15.2910   73.0340 C   0  0  0  0  0  0  0  0  0  0  0  0
  -12.9110   15.1630   74.3580 O   0  0  0  0  0  0  0  0  0  0  0  0
  -13.0310   16.4620   73.7470 O   0  0  0  0  0  0  0  0  0  0  0  0
  1 16  1  0  0  0  0
  1  2  2  0  0  0  0
  1  6  1  0  0  0  0
  2 40  1  0  0  0  0
  2  3  1  0  0  0  0
  3  4  1  0  0  0  0
  4  5  2  0  0  0  0
  4 10  1  0  0  0  0
  5  6  1  0  0  0  0
  5  7  1  0  0  0  0
  7  8  1  0  0  0  0
  8 52  1  0  0  0  0
  8  9  2  0  0  0  0
  9 10  1  0  0  0  0
  9 15  1  0  0  0  0
 10 11  2  0  0  0  0
 11 12  1  0  0  0  0
 12 13  2  0  0  0  0
 12 14  1  0  0  0  0
 14 15  2  0  0  0  0
 16 17  1  0  0  0  0
 16 31  2  0  0  0  0
 17 18  1  0  0  0  0
 17 19  2  0  0  0  0
 18 20  2  0  0  0  0
 19 23  1  0  0  0  0
 19 29  1  0  0  0  0
 20 21  1  0  0  0  0
 20 22  1  0  0  0  0
 21 23  2  0  0  0  0
 21 24  1  0  0  0  0
 22 26  1  0  0  0  0
 22 28  2  0  0  0  0
 23 32  1  0  0  0  0
 24 25  1  0  0  0  0
 25 26  1  0  0  0  0
 25 35  1  0  0  0  0
 26 27  2  0  0  0  0
 29 30  2  0  0  0  0
 30 31  1  0  0  0  0
 32 33  2  0  0  0  0
 33 34  1  0  0  0  0
 35 36  1  0  0  0  0
 35 37  1  0  0  0  0
 35 38  1  0  0  0  0
 37 38  1  0  0  0  0
 38 39  2  0  0  0  0
 40 41  1  0  0  0  0
 41 42  1  0  0  0  0
 41 50  1  0  0  0  0
 42 43  1  0  0  0  0
 43 44  2  0  0  0  0
 43 45  1  0  0  0  0
 44 46  1  0  0  0  0
 45 47  2  0  0  0  0
 45 48  1  0  0  0  0
 48 49  2  0  0  0  0
 48 50  1  0  0  0  0
 50 51  2  0  0  0  0
 52 53  1  0  0  0  0
 52 54  1  0  0  0  0
 53 54  1  0  0  0  0
M  END
