
 OpenBabel09212005503D

 48 54  0  0  1  0  0  0  0  0999 V2000
   -9.9800   16.9260   68.3510 C   0  0  0  0  0  0  0  0  0  0  0  0
   -9.8220   15.6990   67.8140 C   0  0  0  0  0  0  0  0  0  0  0  0
  -10.2150   14.4900   68.6260 C   0  0  0  0  0  0  0  0  0  0  0  0
  -11.0890   14.8120   69.8060 C   0  0  0  0  0  0  0  0  0  0  0  0
  -11.1730   16.1260   70.2450 C   0  0  0  0  0  0  0  0  0  0  0  0
  -10.5450   17.1600   69.5930 O   0  0  0  0  0  0  0  0  0  0  0  0
  -11.8780   16.5090   71.3240 N   0  0  0  0  0  0  0  0  0  0  0  0
  -12.5510   15.5520   72.0190 C   0  0  0  0  0  0  0  0  0  0  0  0
  -12.5810   14.2080   71.6360 C   0  0  0  0  0  0  0  0  0  0  0  0
  -11.8290   13.8490   70.5130 C   0  0  0  0  0  0  0  0  0  0  0  0
  -11.8500   12.5030   70.1140 N   0  0  0  0  0  0  0  0  0  0  0  0
  -12.6450   11.5400   70.6590 C   0  0  0  0  0  0  0  0  0  0  0  0
  -12.6400   10.3870   70.2440 O   0  0  0  0  0  0  0  0  0  0  0  0
  -13.4680   11.9240   71.6630 N   0  0  0  0  0  0  0  0  0  0  0  0
  -13.3010   13.1430   72.4060 C   0  0  0  0  0  0  0  0  0  0  0  0
   -9.5440   18.1600   67.6720 C   0  0  0  0  0  0  0  0  0  0  0  0
  -10.4530   18.6650   66.7990 N   0  0  0  0  0  0  0  0  0  0  0  0
  -10.1150   19.7900   66.1380 C   0  0  0  0  0  0  0  0  0  0  0  0
   -8.9060   20.4420   66.2930 C   0  0  0  0  0  0  0  0  0  0  0  0
   -7.9660   19.9220   67.1870 C   0  0  0  0  0  0  0  0  0  0  0  0
   -6.7250   20.5600   67.3810 C   0  0  0  0  0  0  0  0  0  0  0  0
   -8.2780   18.7460   67.9070 C   0  0  0  0  0  0  0  0  0  0  0  0
   -5.7990   20.0630   68.2980 C   0  0  0  0  0  0  0  0  0  0  0  0
   -4.6480   20.7880   68.4520 O   0  0  0  0  0  0  0  0  0  0  0  0
   -6.0940   18.8950   68.9930 C   0  0  0  0  0  0  0  0  0  0  0  0
   -3.9470   20.5780   69.6800 C   0  0  0  0  0  0  0  0  0  0  0  0
   -3.8410   19.1360   70.1120 C   0  0  0  0  0  0  0  0  0  0  0  0
   -5.1190   18.3510   69.9460 C   0  0  0  0  0  0  0  0  0  0  0  0
   -2.8330   18.6240   70.5780 O   0  0  0  0  0  0  0  0  0  0  0  0
   -5.3190   17.3200   70.5710 O   0  0  0  0  0  0  0  0  0  0  0  0
   -7.3140   18.2380   68.8050 C   0  0  0  0  0  0  0  0  0  0  0  0
   -4.5320   21.4280   70.8190 C   0  0  0  0  0  0  0  0  0  0  0  0
   -3.5670   21.6300   71.8510 O   0  0  0  0  0  0  0  0  0  0  0  0
   -9.2550   15.5570   66.5530 O   0  0  0  0  0  0  0  0  0  0  0  0
   -9.8310   14.6530   65.6100 C   0  0  0  0  0  0  0  0  0  0  0  0
  -10.2460   13.4280   66.2130 O   0  0  0  0  0  0  0  0  0  0  0  0
  -10.6460   12.4340   65.2610 C   0  0  0  0  0  0  0  0  0  0  0  0
  -11.9660   12.8670   64.6750 C   0  0  0  0  0  0  0  0  0  0  0  0
  -12.7040   12.1670   64.0180 O   0  0  0  0  0  0  0  0  0  0  0  0
  -12.2460   14.3440   64.8990 C   0  0  0  0  0  0  0  0  0  0  0  0
  -13.3830   14.7420   65.0570 O   0  0  0  0  0  0  0  0  0  0  0  0
  -11.0650   15.2940   64.9730 C   0  0  0  0  0  0  0  0  0  0  0  0
  -11.1330   16.4090   64.4870 O   0  0  0  0  0  0  0  0  0  0  0  0
  -10.7860   11.1250   66.0240 C   0  0  0  0  0  0  0  0  0  0  0  0
  -11.7630   11.3070   67.0520 O   0  0  0  0  0  0  0  0  0  0  0  0
  -13.2760   15.9190   73.2480 N   0  0  0  0  0  0  0  0  0  0  0  0
  -14.4770   16.2070   73.1310 O   0  0  0  0  0  0  0  0  0  0  0  0
  -12.6280   15.9450   74.3020 O   0  0  0  0  0  0  0  0  0  0  0  0
  1 16  1  0  0  0  0
  1  2  2  0  0  0  0
  1  6  1  0  0  0  0
  2 34  1  0  0  0  0
  2  3  1  0  0  0  0
  3  4  1  0  0  0  0
  4  5  2  0  0  0  0
  4 10  1  0  0  0  0
  5  6  1  0  0  0  0
  5  7  1  0  0  0  0
  7  8  2  0  0  0  0
  8 46  1  0  0  0  0
  8  9  1  0  0  0  0
  9 10  2  0  0  0  0
  9 15  1  0  0  0  0
 10 11  1  0  0  0  0
 11 12  1  0  0  0  0
 12 13  2  0  0  0  0
 12 14  1  0  0  0  0
 14 15  1  0  0  0  0
 16 17  1  0  0  0  0
 16 22  2  0  0  0  0
 17 18  2  0  0  0  0
 18 19  1  0  0  0  0
 19 20  2  0  0  0  0
 20 21  1  0  0  0  0
 20 22  1  0  0  0  0
 21 23  2  0  0  0  0
 22 31  1  0  0  0  0
 23 24  1  0  0  0  0
 23 25  1  0  0  0  0
 24 26  1  0  0  0  0
 25 31  2  0  0  0  0
 25 28  1  0  0  0  0
 26 27  1  0  0  0  0
 26 32  1  0  0  0  0
 27 28  1  0  0  0  0
 27 29  2  0  0  0  0
 28 30  2  0  0  0  0
 32 33  1  0  0  0  0
 34 35  1  0  0  0  0
 35 36  1  0  0  0  0
 35 42  1  0  0  0  0
 36 37  1  0  0  0  0
 37 38  1  0  0  0  0
 37 44  1  0  0  0  0
 38 39  2  0  0  0  0
 38 40  1  0  0  0  0
 40 41  2  0  0  0  0
 40 42  1  0  0  0  0
 42 43  2  0  0  0  0
 44 45  1  0  0  0  0
 46 47  2  0  0  0  0
 46 48  2  0  0  0  0
M  END
