
 OpenBabel11152012063D

 52 60  0  0  1  0  0  0  0  0999 V2000
  -10.9670   16.0450   66.8260 C   0  0  0  0  0  0  0  0  0  0  0  0
  -10.5250   17.1010   67.5470 C   0  0  0  0  0  0  0  0  0  0  0  0
  -10.8890   17.2770   68.8900 O   0  0  0  0  0  0  0  0  0  0  0  0
  -11.4890   16.2340   69.5740 C   0  0  0  0  0  0  0  0  0  0  0  0
  -11.9640   15.1490   68.9460 C   0  0  0  0  0  0  0  0  0  0  0  0
  -11.8920   15.0320   67.4660 C   0  0  0  0  0  0  0  0  0  0  0  0
  -12.5390   13.9860   69.7190 C   0  0  0  0  0  0  0  0  0  0  0  0
  -11.8040   12.8190   69.3350 O   0  0  0  0  0  0  0  0  0  0  0  0
  -11.7110   11.7140   70.1120 C   0  0  0  0  0  0  0  0  0  0  0  0
  -11.1560   10.7010   69.7030 O   0  0  0  0  0  0  0  0  0  0  0  0
  -12.2370   11.7730   71.3580 O   0  0  0  0  0  0  0  0  0  0  0  0
  -12.8840   12.9220   71.8800 C   0  0  0  0  0  0  0  0  0  0  0  0
  -12.4460   14.1520   71.1930 C   0  0  0  0  0  0  0  0  0  0  0  0
  -11.9770   15.2860   71.7600 C   0  0  0  0  0  0  0  0  0  0  0  0
  -11.5570   16.3220   70.9400 N   0  0  0  0  0  0  0  0  0  0  0  0
  -14.2830   12.7840   71.7090 O   0  0  0  0  0  0  0  0  0  0  0  0
   -9.5020   18.0830   67.1070 C   0  0  0  0  0  0  0  0  0  0  0  0
   -9.9640   18.9080   66.1340 N   0  0  0  0  0  0  0  0  0  0  0  0
   -9.1980   19.8450   65.6760 N   0  0  0  0  0  0  0  0  0  0  0  0
   -7.9950   20.0410   66.1390 N   0  0  0  0  0  0  0  0  0  0  0  0
   -7.4960   19.2510   67.0820 C   0  0  0  0  0  0  0  0  0  0  0  0
   -8.2150   18.1780   67.6160 C   0  0  0  0  0  0  0  0  0  0  0  0
   -6.2520   19.5190   67.5160 N   0  0  0  0  0  0  0  0  0  0  0  0
   -7.6470   17.3450   68.5490 N   0  0  0  0  0  0  0  0  0  0  0  0
   -6.3970   17.6620   68.9730 C   0  0  0  0  0  0  0  0  0  0  0  0
   -5.7160   18.7510   68.4830 C   0  0  0  0  0  0  0  0  0  0  0  0
   -5.7580   16.8050   69.9740 C   0  0  0  0  0  0  0  0  0  0  0  0
   -4.4770   19.1530   68.8820 O   0  0  0  0  0  0  0  0  0  0  0  0
   -4.0000   18.6420   70.1290 C   0  0  0  0  0  0  0  0  0  0  0  0
   -4.3650   17.2030   70.4000 C   0  0  0  0  0  0  0  0  0  0  0  0
   -3.6310   16.4010   70.9590 O   0  0  0  0  0  0  0  0  0  0  0  0
   -6.2950   15.8190   70.4550 O   0  0  0  0  0  0  0  0  0  0  0  0
   -4.3960   19.5400   71.2710 C   0  0  0  0  0  0  0  0  0  0  0  0
   -5.6250   19.2060   71.9470 O   0  0  0  0  0  0  0  0  0  0  0  0
   -3.3440   19.9330   72.1520 O   0  0  0  0  0  0  0  0  0  0  0  0
   -3.8830   20.8940   71.3860 C   0  0  0  0  0  0  0  0  0  0  0  0
   -3.3540   21.6520   70.5900 O   0  0  0  0  0  0  0  0  0  0  0  0
  -10.4970   15.8000   65.5420 O   0  0  0  0  0  0  0  0  0  0  0  0
  -10.4140   14.4330   65.1180 C   0  0  0  0  0  0  0  0  0  0  0  0
  -10.1690   13.5570   66.2150 O   0  0  0  0  0  0  0  0  0  0  0  0
  -10.0100   12.2280   65.8730 C   0  0  0  0  0  0  0  0  0  0  0  0
   -9.2360   11.4130   66.6010 C   0  0  0  0  0  0  0  0  0  0  0  0
  -10.7460   11.6420   64.7210 C   0  0  0  0  0  0  0  0  0  0  0  0
   -8.5130   11.8390   67.6850 O   0  0  0  0  0  0  0  0  0  0  0  0
  -11.7430   12.5840   64.0770 C   0  0  0  0  0  0  0  0  0  0  0  0
  -10.5630   10.5130   64.2940 O   0  0  0  0  0  0  0  0  0  0  0  0
  -11.6910   14.0560   64.4010 C   0  0  0  0  0  0  0  0  0  0  0  0
  -12.5760   12.1620   63.2900 O   0  0  0  0  0  0  0  0  0  0  0  0
  -12.5760   14.8160   64.0360 O   0  0  0  0  0  0  0  0  0  0  0  0
  -11.8630   15.5090   73.2170 C   0  0  0  0  0  0  0  0  0  0  0  0
  -12.0570   16.8070   73.7970 O   0  0  0  0  0  0  0  0  0  0  0  0
  -13.0110   15.7560   74.0460 O   0  0  0  0  0  0  0  0  0  0  0  0
  1 38  1  0  0  0  0
  1  2  2  0  0  0  0
  1  6  1  0  0  0  0
  2  3  1  0  0  0  0
  2 17  1  0  0  0  0
  3  4  1  0  0  0  0
  4  5  2  0  0  0  0
  4 15  1  0  0  0  0
  5  6  1  0  0  0  0
  5  7  1  0  0  0  0
  7  8  1  0  0  0  0
  7 13  1  0  0  0  0
  8  9  1  0  0  0  0
  9 10  2  0  0  0  0
  9 11  1  0  0  0  0
 11 12  1  0  0  0  0
 12 13  1  0  0  0  0
 12 16  1  0  0  0  0
 13 14  2  0  0  0  0
 14 15  1  0  0  0  0
 14 50  1  0  0  0  0
 17 18  2  0  0  0  0
 17 22  1  0  0  0  0
 18 19  1  0  0  0  0
 19 20  2  0  0  0  0
 20 21  1  0  0  0  0
 21 22  2  0  0  0  0
 21 23  1  0  0  0  0
 22 24  1  0  0  0  0
 23 26  2  0  0  0  0
 24 25  2  0  0  0  0
 25 26  1  0  0  0  0
 25 27  1  0  0  0  0
 26 28  1  0  0  0  0
 27 30  1  0  0  0  0
 27 32  2  0  0  0  0
 28 29  1  0  0  0  0
 29 30  1  0  0  0  0
 29 33  1  0  0  0  0
 30 31  2  0  0  0  0
 33 34  1  0  0  0  0
 33 35  1  0  0  0  0
 33 36  1  0  0  0  0
 35 36  1  0  0  0  0
 36 37  2  0  0  0  0
 38 39  1  0  0  0  0
 39 40  1  0  0  0  0
 39 47  1  0  0  0  0
 40 41  1  0  0  0  0
 41 42  2  0  0  0  0
 41 43  1  0  0  0  0
 42 44  1  0  0  0  0
 43 45  1  0  0  0  0
 43 46  2  0  0  0  0
 45 47  1  0  0  0  0
 45 48  2  0  0  0  0
 47 49  2  0  0  0  0
 50 51  1  0  0  0  0
 50 52  1  0  0  0  0
 51 52  1  0  0  0  0
M  END
