
 OpenBabel11232002213D

 53 62  0  0  1  0  0  0  0  0999 V2000
  -10.7080   15.6580   67.3430 C   0  0  0  0  0  0  0  0  0  0  0  0
  -10.6800   16.8650   67.9620 C   0  0  0  0  0  0  0  0  0  0  0  0
  -11.1300   17.0400   69.2750 O   0  0  0  0  0  0  0  0  0  0  0  0
  -11.7090   15.9750   69.9580 C   0  0  0  0  0  0  0  0  0  0  0  0
  -11.8780   14.7720   69.3890 C   0  0  0  0  0  0  0  0  0  0  0  0
  -11.3880   14.4740   68.0160 C   0  0  0  0  0  0  0  0  0  0  0  0
  -12.6370   13.6800   70.1030 C   0  0  0  0  0  0  0  0  0  0  0  0
  -11.8140   12.4740   70.1540 N   0  0  0  0  0  0  0  0  0  0  0  0
  -12.3840   11.3950   70.7480 C   0  0  0  0  0  0  0  0  0  0  0  0
  -12.3080   10.2060   70.2750 N   0  0  0  0  0  0  0  0  0  0  0  0
  -12.9960   11.6480   71.9220 N   0  0  0  0  0  0  0  0  0  0  0  0
  -13.7300   12.8650   72.1800 C   0  0  0  0  0  0  0  0  0  0  0  0
  -13.0290   14.0150   71.5190 C   0  0  0  0  0  0  0  0  0  0  0  0
  -12.7580   15.2320   72.0490 C   0  0  0  0  0  0  0  0  0  0  0  0
  -12.1290   16.1850   71.2470 N   0  0  0  0  0  0  0  0  0  0  0  0
  -10.0850   18.1070   67.4010 C   0  0  0  0  0  0  0  0  0  0  0  0
  -10.8000   18.7560   66.4030 C   0  0  0  0  0  0  0  0  0  0  0  0
  -10.3110   19.8470   65.8050 N   0  0  0  0  0  0  0  0  0  0  0  0
  -11.0070   20.4160   64.8020 F   0  0  0  0  0  0  0  0  0  0  0  0
   -9.1540   20.3870   66.1380 N   0  0  0  0  0  0  0  0  0  0  0  0
   -8.4010   19.8100   67.0760 C   0  0  0  0  0  0  0  0  0  0  0  0
   -8.8090   18.6300   67.7350 C   0  0  0  0  0  0  0  0  0  0  0  0
   -7.1610   20.3830   67.3830 C   0  0  0  0  0  0  0  0  0  0  0  0
   -7.9040   18.0460   68.6590 C   0  0  0  0  0  0  0  0  0  0  0  0
   -6.6590   18.6410   68.9360 C   0  0  0  0  0  0  0  0  0  0  0  0
   -5.7320   18.0250   69.8970 C   0  0  0  0  0  0  0  0  0  0  0  0
   -6.2780   19.8160   68.2990 C   0  0  0  0  0  0  0  0  0  0  0  0
   -5.8970   16.8760   70.3070 O   0  0  0  0  0  0  0  0  0  0  0  0
   -4.5570   18.8650   70.3310 C   0  0  0  0  0  0  0  0  0  0  0  0
   -4.1610   18.9780   71.4730 O   0  0  0  0  0  0  0  0  0  0  0  0
   -4.0800   19.6310   69.1790 C   0  0  0  0  0  0  0  0  0  0  0  0
   -5.0740   20.4470   68.5110 O   0  0  0  0  0  0  0  0  0  0  0  0
   -3.2260   18.8130   68.2630 O   0  0  0  0  0  0  0  0  0  0  0  0
   -2.6910   19.8840   68.9840 C   0  0  0  0  0  0  0  0  0  0  0  0
   -1.9960   20.8820   68.3160 O   0  0  0  0  0  0  0  0  0  0  0  0
   -1.3540   20.1190   69.4350 C   0  0  0  0  0  0  0  0  0  0  0  0
   -0.2170   19.3050   69.0160 N   0  0  0  0  0  0  0  0  0  0  0  0
   -6.7970   21.5090   66.7460 F   0  0  0  0  0  0  0  0  0  0  0  0
  -10.1280   15.4560   66.0890 O   0  0  0  0  0  0  0  0  0  0  0  0
  -10.1620   14.0990   65.5930 C   0  0  0  0  0  0  0  0  0  0  0  0
  -10.0530   13.1300   66.6380 O   0  0  0  0  0  0  0  0  0  0  0  0
   -9.8750   11.8320   66.1700 C   0  0  0  0  0  0  0  0  0  0  0  0
   -9.1770   10.9310   66.8720 C   0  0  0  0  0  0  0  0  0  0  0  0
  -10.4600   11.3930   64.8680 C   0  0  0  0  0  0  0  0  0  0  0  0
   -8.6210   11.2110   68.0910 O   0  0  0  0  0  0  0  0  0  0  0  0
  -11.4290   12.4020   64.2680 C   0  0  0  0  0  0  0  0  0  0  0  0
  -10.1560   10.3650   64.2900 O   0  0  0  0  0  0  0  0  0  0  0  0
  -11.4320   13.8130   64.8180 C   0  0  0  0  0  0  0  0  0  0  0  0
  -12.1290   12.1130   63.3130 O   0  0  0  0  0  0  0  0  0  0  0  0
  -12.3150   14.6190   64.5670 O   0  0  0  0  0  0  0  0  0  0  0  0
  -13.0930   15.6610   73.4360 C   0  0  0  0  0  0  0  0  0  0  0  0
  -12.2550   15.3110   74.5520 O   0  0  0  0  0  0  0  0  0  0  0  0
  -12.3400   16.6810   74.1130 O   0  0  0  0  0  0  0  0  0  0  0  0
  1 39  1  0  0  0  0
  1  2  2  0  0  0  0
  1  6  1  0  0  0  0
  2  3  1  0  0  0  0
  2 16  1  0  0  0  0
  3  4  1  0  0  0  0
  4  5  2  0  0  0  0
  4 15  1  0  0  0  0
  5  6  1  0  0  0  0
  5  7  1  0  0  0  0
  7  8  1  0  0  0  0
  7 13  1  0  0  0  0
  8  9  1  0  0  0  0
  9 10  2  0  0  0  0
  9 11  1  0  0  0  0
 11 12  1  0  0  0  0
 12 13  1  0  0  0  0
 13 14  2  0  0  0  0
 14 15  1  0  0  0  0
 14 51  1  0  0  0  0
 16 17  2  0  0  0  0
 16 22  1  0  0  0  0
 17 18  1  0  0  0  0
 18 19  1  0  0  0  0
 18 20  2  0  0  0  0
 20 21  1  0  0  0  0
 21 22  2  0  0  0  0
 21 23  1  0  0  0  0
 22 24  1  0  0  0  0
 23 27  2  0  0  0  0
 23 38  1  0  0  0  0
 24 25  2  0  0  0  0
 25 26  1  0  0  0  0
 25 27  1  0  0  0  0
 26 28  2  0  0  0  0
 26 29  1  0  0  0  0
 27 32  1  0  0  0  0
 29 30  2  0  0  0  0
 29 31  1  0  0  0  0
 31 32  1  0  0  0  0
 31 33  1  0  0  0  0
 31 34  1  0  0  0  0
 33 34  1  0  0  0  0
 34 35  1  0  0  0  0
 34 36  1  0  0  0  0
 35 36  1  0  0  0  0
 36 37  1  0  0  0  0
 39 40  1  0  0  0  0
 40 41  1  0  0  0  0
 40 48  1  0  0  0  0
 41 42  1  0  0  0  0
 42 43  2  0  0  0  0
 42 44  1  0  0  0  0
 43 45  1  0  0  0  0
 44 46  1  0  0  0  0
 44 47  2  0  0  0  0
 46 48  1  0  0  0  0
 46 49  2  0  0  0  0
 48 50  2  0  0  0  0
 51 52  1  0  0  0  0
 51 53  1  0  0  0  0
 52 53  1  0  0  0  0
M  CHG  1  18   1
M  END