
 OpenBabel11272020513D

 54 62  0  0  1  0  0  0  0  0999 V2000
  -10.8220   15.6400   67.1810 C   0  0  0  0  0  0  0  0  0  0  0  0
  -10.5900   16.7830   67.8630 C   0  0  0  0  0  0  0  0  0  0  0  0
  -10.9640   16.9590   69.2020 O   0  0  0  0  0  0  0  0  0  0  0  0
  -11.6570   15.9480   69.8660 C   0  0  0  0  0  0  0  0  0  0  0  0
  -11.8730   14.7550   69.2840 C   0  0  0  0  0  0  0  0  0  0  0  0
  -11.4620   14.4700   67.8760 C   0  0  0  0  0  0  0  0  0  0  0  0
  -12.5890   13.6330   69.9770 C   0  0  0  0  0  0  0  0  0  0  0  0
  -11.7030   12.5510   70.1190 O   0  0  0  0  0  0  0  0  0  0  0  0
  -12.1810   11.4480   70.7810 C   0  0  0  0  0  0  0  0  0  0  0  0
  -11.6700   10.3590   70.6370 O   0  0  0  0  0  0  0  0  0  0  0  0
  -13.2390   11.6490   71.6210 O   0  0  0  0  0  0  0  0  0  0  0  0
  -13.6130   12.8880   72.0150 C   0  0  0  0  0  0  0  0  0  0  0  0
  -14.4650   13.0890   72.8630 O   0  0  0  0  0  0  0  0  0  0  0  0
  -12.9890   14.0170   71.3320 C   0  0  0  0  0  0  0  0  0  0  0  0
  -12.8030   15.2420   71.8690 C   0  0  0  0  0  0  0  0  0  0  0  0
  -12.1230   16.2160   71.1360 O   0  0  0  0  0  0  0  0  0  0  0  0
   -9.9460   17.9730   67.2620 C   0  0  0  0  0  0  0  0  0  0  0  0
  -10.7370   18.6420   66.3930 N   0  0  0  0  0  0  0  0  0  0  0  0
  -10.2180   19.7470   65.8170 C   0  0  0  0  0  0  0  0  0  0  0  0
  -10.9790   20.3900   64.9230 F   0  0  0  0  0  0  0  0  0  0  0  0
   -8.9740   20.2680   66.1140 C   0  0  0  0  0  0  0  0  0  0  0  0
   -8.1700   19.6030   67.0450 C   0  0  0  0  0  0  0  0  0  0  0  0
   -8.6420   18.4040   67.6260 C   0  0  0  0  0  0  0  0  0  0  0  0
   -6.9110   20.1170   67.4190 C   0  0  0  0  0  0  0  0  0  0  0  0
   -7.7830   17.7340   68.5270 C   0  0  0  0  0  0  0  0  0  0  0  0
   -6.5180   18.2520   68.8500 C   0  0  0  0  0  0  0  0  0  0  0  0
   -5.6160   17.4790   69.7090 C   0  0  0  0  0  0  0  0  0  0  0  0
   -6.0910   19.4690   68.3440 C   0  0  0  0  0  0  0  0  0  0  0  0
   -5.9590   16.4090   70.1870 O   0  0  0  0  0  0  0  0  0  0  0  0
   -4.2550   18.0770   69.9700 C   0  0  0  0  0  0  0  0  0  0  0  0
   -3.3240   17.3820   70.3440 O   0  0  0  0  0  0  0  0  0  0  0  0
   -4.2190   19.5810   69.8390 C   0  0  0  0  0  0  0  0  0  0  0  0
   -4.9120   20.0730   68.6780 O   0  0  0  0  0  0  0  0  0  0  0  0
   -6.4960   21.2800   66.8890 F   0  0  0  0  0  0  0  0  0  0  0  0
   -4.6900   20.2970   71.0860 C   0  0  0  0  0  0  0  0  0  0  0  0
   -6.1150   20.3570   71.2860 O   0  0  0  0  0  0  0  0  0  0  0  0
   -3.9380   20.0430   72.2740 O   0  0  0  0  0  0  0  0  0  0  0  0
   -3.8770   21.3860   71.7650 C   0  0  0  0  0  0  0  0  0  0  0  0
   -4.6180   22.3540   72.5220 O   0  0  0  0  0  0  0  0  0  0  0  0
  -10.5500   15.5360   65.8220 O   0  0  0  0  0  0  0  0  0  0  0  0
  -10.3050   14.2240   65.2840 C   0  0  0  0  0  0  0  0  0  0  0  0
   -9.7910   13.3270   66.2750 O   0  0  0  0  0  0  0  0  0  0  0  0
   -9.4970   12.0460   65.8480 C   0  0  0  0  0  0  0  0  0  0  0  0
   -8.4730   11.3670   66.3700 C   0  0  0  0  0  0  0  0  0  0  0  0
  -10.3350   11.3560   64.8310 C   0  0  0  0  0  0  0  0  0  0  0  0
   -7.6510   11.9230   67.2830 F   0  0  0  0  0  0  0  0  0  0  0  0
  -11.3310   12.2650   64.1380 C   0  0  0  0  0  0  0  0  0  0  0  0
  -10.2220   10.1780   64.5450 O   0  0  0  0  0  0  0  0  0  0  0  0
  -11.5790   13.6350   64.7080 C   0  0  0  0  0  0  0  0  0  0  0  0
  -11.8230   11.9580   63.0660 O   0  0  0  0  0  0  0  0  0  0  0  0
  -12.6760   14.1640   64.6580 O   0  0  0  0  0  0  0  0  0  0  0  0
  -13.2360   15.6150   73.2300 C   0  0  0  0  0  0  0  0  0  0  0  0
  -12.4220   16.5540   73.9260 N   0  0  0  0  0  0  0  0  0  0  0  0
  -12.3430   15.3700   74.3000 N   0  0  0  0  0  0  0  0  0  0  0  0
  1 40  1  0  0  0  0
  1  2  2  0  0  0  0
  1  6  1  0  0  0  0
  2  3  1  0  0  0  0
  2 17  1  0  0  0  0
  3  4  1  0  0  0  0
  4  5  2  0  0  0  0
  4 16  1  0  0  0  0
  5  6  1  0  0  0  0
  5  7  1  0  0  0  0
  7  8  1  0  0  0  0
  7 14  1  0  0  0  0
  8  9  1  0  0  0  0
  9 10  2  0  0  0  0
  9 11  1  0  0  0  0
 11 12  1  0  0  0  0
 12 13  2  0  0  0  0
 12 14  1  0  0  0  0
 14 15  2  0  0  0  0
 15 16  1  0  0  0  0
 15 52  1  0  0  0  0
 17 18  2  0  0  0  0
 17 23  1  0  0  0  0
 18 19  1  0  0  0  0
 19 20  1  0  0  0  0
 19 21  2  0  0  0  0
 21 22  1  0  0  0  0
 22 23  2  0  0  0  0
 22 24  1  0  0  0  0
 23 25  1  0  0  0  0
 24 28  2  0  0  0  0
 24 34  1  0  0  0  0
 25 26  2  0  0  0  0
 26 27  1  0  0  0  0
 26 28  1  0  0  0  0
 27 29  2  0  0  0  0
 27 30  1  0  0  0  0
 28 33  1  0  0  0  0
 30 31  2  0  0  0  0
 30 32  1  0  0  0  0
 32 33  1  0  0  0  0
 32 35  1  0  0  0  0
 35 36  1  0  0  0  0
 35 37  1  0  0  0  0
 35 38  1  0  0  0  0
 37 38  1  0  0  0  0
 38 39  1  0  0  0  0
 40 41  1  0  0  0  0
 41 42  1  0  0  0  0
 41 49  1  0  0  0  0
 42 43  1  0  0  0  0
 43 44  2  0  0  0  0
 43 45  1  0  0  0  0
 44 46  1  0  0  0  0
 45 47  1  0  0  0  0
 45 48  2  0  0  0  0
 47 49  1  0  0  0  0
 47 50  2  0  0  0  0
 49 51  2  0  0  0  0
 52 53  1  0  0  0  0
 52 54  1  0  0  0  0
 53 54  2  0  0  0  0
M  CHG  1  16   1
M  END