
 OpenBabel11212020023D

 54 62  0  0  1  0  0  0  0  0999 V2000
  -11.2870   15.9920   67.3070 C   0  0  0  0  0  0  0  0  0  0  0  0
  -10.7300   17.0260   67.9910 C   0  0  0  0  0  0  0  0  0  0  0  0
  -10.8770   17.1380   69.3920 O   0  0  0  0  0  0  0  0  0  0  0  0
  -11.5430   16.1460   70.1280 C   0  0  0  0  0  0  0  0  0  0  0  0
  -12.0420   15.0640   69.5110 C   0  0  0  0  0  0  0  0  0  0  0  0
  -12.0120   14.8950   68.0320 C   0  0  0  0  0  0  0  0  0  0  0  0
  -12.6430   13.9100   70.2530 C   0  0  0  0  0  0  0  0  0  0  0  0
  -11.7650   12.8150   70.0530 O   0  0  0  0  0  0  0  0  0  0  0  0
  -12.0370   11.6490   70.6920 C   0  0  0  0  0  0  0  0  0  0  0  0
  -11.5150   10.6040   70.3410 O   0  0  0  0  0  0  0  0  0  0  0  0
  -12.8890   11.7300   71.7410 O   0  0  0  0  0  0  0  0  0  0  0  0
  -13.2930   12.9510   72.3540 C   0  0  0  0  0  0  0  0  0  0  0  0
  -12.6890   14.1470   71.7070 C   0  0  0  0  0  0  0  0  0  0  0  0
  -12.2270   15.2820   72.2790 C   0  0  0  0  0  0  0  0  0  0  0  0
  -11.6440   16.2830   71.5000 O   0  0  0  0  0  0  0  0  0  0  0  0
  -14.6870   13.1070   72.1810 O   0  0  0  0  0  0  0  0  0  0  0  0
   -9.8770   18.0960   67.3380 C   0  0  0  0  0  0  0  0  0  0  0  0
  -10.4480   18.8740   66.3250 C   0  0  0  0  0  0  0  0  0  0  0  0
   -9.7680   19.8390   65.7070 N   0  0  0  0  0  0  0  0  0  0  0  0
  -10.3780   20.5580   64.7450 F   0  0  0  0  0  0  0  0  0  0  0  0
   -8.5180   20.1090   65.9850 N   0  0  0  0  0  0  0  0  0  0  0  0
   -7.8650   19.4130   66.9160 C   0  0  0  0  0  0  0  0  0  0  0  0
   -8.5060   18.3650   67.6270 C   0  0  0  0  0  0  0  0  0  0  0  0
   -6.5170   19.7360   67.1900 C   0  0  0  0  0  0  0  0  0  0  0  0
   -7.7250   17.6670   68.5770 C   0  0  0  0  0  0  0  0  0  0  0  0
   -6.3800   17.9790   68.8080 C   0  0  0  0  0  0  0  0  0  0  0  0
   -5.6110   17.1800   69.7650 C   0  0  0  0  0  0  0  0  0  0  0  0
   -5.7750   19.0340   68.1520 C   0  0  0  0  0  0  0  0  0  0  0  0
   -6.0900   16.1580   70.2350 O   0  0  0  0  0  0  0  0  0  0  0  0
   -4.2170   17.6650   70.0860 C   0  0  0  0  0  0  0  0  0  0  0  0
   -3.4010   16.8990   70.5740 O   0  0  0  0  0  0  0  0  0  0  0  0
   -3.9690   19.1140   69.7320 C   0  0  0  0  0  0  0  0  0  0  0  0
   -4.5010   19.4550   68.4340 O   0  0  0  0  0  0  0  0  0  0  0  0
   -5.7450   21.1120   66.3060 S   0  0  0  0  0  0  0  0  0  0  0  0
   -4.4050   20.0600   70.8290 C   0  0  0  0  0  0  0  0  0  0  0  0
   -5.3890   21.0420   70.4590 O   0  0  0  0  0  0  0  0  0  0  0  0
   -4.5990   19.4620   72.1220 O   0  0  0  0  0  0  0  0  0  0  0  0
   -3.6270   20.3720   72.0130 C   0  0  0  0  0  0  0  0  0  0  0  0
   -2.4290   20.3340   72.2440 O   0  0  0  0  0  0  0  0  0  0  0  0
  -11.1590   15.8730   65.9280 O   0  0  0  0  0  0  0  0  0  0  0  0
  -10.5980   14.6670   65.3450 C   0  0  0  0  0  0  0  0  0  0  0  0
  -10.2000   13.7900   66.3710 O   0  0  0  0  0  0  0  0  0  0  0  0
  -10.0470   12.4530   66.0750 C   0  0  0  0  0  0  0  0  0  0  0  0
   -9.4640   11.6530   66.9780 C   0  0  0  0  0  0  0  0  0  0  0  0
  -10.5720   11.8280   64.8150 C   0  0  0  0  0  0  0  0  0  0  0  0
   -8.9920   12.1280   68.1780 O   0  0  0  0  0  0  0  0  0  0  0  0
  -11.2450   12.7380   63.8130 C   0  0  0  0  0  0  0  0  0  0  0  0
  -10.4170   10.6280   64.6020 O   0  0  0  0  0  0  0  0  0  0  0  0
  -11.6410   14.0710   64.4040 C   0  0  0  0  0  0  0  0  0  0  0  0
  -12.3090   12.1250   63.2150 F   0  0  0  0  0  0  0  0  0  0  0  0
  -12.6450   14.7080   64.0690 O   0  0  0  0  0  0  0  0  0  0  0  0
  -12.2740   15.5340   73.7390 C   0  0  0  0  0  0  0  0  0  0  0  0
  -12.1320   16.8610   74.2600 O   0  0  0  0  0  0  0  0  0  0  0  0
  -13.4070   16.1920   74.3270 O   0  0  0  0  0  0  0  0  0  0  0  0
  1 40  1  0  0  0  0
  1  2  2  0  0  0  0
  1  6  1  0  0  0  0
  2  3  1  0  0  0  0
  2 17  1  0  0  0  0
  3  4  1  0  0  0  0
  4  5  2  0  0  0  0
  4 15  1  0  0  0  0
  5  6  1  0  0  0  0
  5  7  1  0  0  0  0
  7  8  1  0  0  0  0
  7 13  1  0  0  0  0
  8  9  1  0  0  0  0
  9 10  2  0  0  0  0
  9 11  1  0  0  0  0
 11 12  1  0  0  0  0
 12 13  1  0  0  0  0
 12 16  1  0  0  0  0
 13 14  2  0  0  0  0
 14 15  1  0  0  0  0
 14 52  1  0  0  0  0
 17 18  2  0  0  0  0
 17 23  1  0  0  0  0
 18 19  1  0  0  0  0
 19 20  1  0  0  0  0
 19 21  2  0  0  0  0
 21 22  1  0  0  0  0
 22 23  2  0  0  0  0
 22 24  1  0  0  0  0
 23 25  1  0  0  0  0
 24 28  2  0  0  0  0
 24 34  1  0  0  0  0
 25 26  2  0  0  0  0
 26 27  1  0  0  0  0
 26 28  1  0  0  0  0
 27 29  2  0  0  0  0
 27 30  1  0  0  0  0
 28 33  1  0  0  0  0
 30 31  2  0  0  0  0
 30 32  1  0  0  0  0
 32 33  1  0  0  0  0
 32 35  1  0  0  0  0
 35 36  1  0  0  0  0
 35 37  1  0  0  0  0
 35 38  1  0  0  0  0
 37 38  1  0  0  0  0
 38 39  2  0  0  0  0
 40 41  1  0  0  0  0
 41 42  1  0  0  0  0
 41 49  1  0  0  0  0
 42 43  1  0  0  0  0
 43 44  2  0  0  0  0
 43 45  1  0  0  0  0
 44 46  1  0  0  0  0
 45 47  1  0  0  0  0
 45 48  2  0  0  0  0
 47 49  1  0  0  0  0
 47 50  1  0  0  0  0
 49 51  2  0  0  0  0
 52 53  1  0  0  0  0
 52 54  1  0  0  0  0
 53 54  1  0  0  0  0
M  CHG  2  15   1  19   1
M  END