
 OpenBabel11222022323D

 54 64  0  0  1  0  0  0  0  0999 V2000
  -10.8240   15.6730   67.1070 C   0  0  0  0  0  0  0  0  0  0  0  0
  -10.5380   16.8210   67.7750 C   0  0  0  0  0  0  0  0  0  0  0  0
  -10.9820   17.0320   69.1080 O   0  0  0  0  0  0  0  0  0  0  0  0
  -11.6050   15.9740   69.8240 C   0  0  0  0  0  0  0  0  0  0  0  0
  -11.9290   14.8270   69.2020 C   0  0  0  0  0  0  0  0  0  0  0  0
  -11.7070   14.6200   67.7430 C   0  0  0  0  0  0  0  0  0  0  0  0
  -12.5490   13.6510   69.9160 C   0  0  0  0  0  0  0  0  0  0  0  0
  -11.6950   12.5280   69.7530 O   0  0  0  0  0  0  0  0  0  0  0  0
  -12.2220   11.3590   70.2240 C   0  0  0  0  0  0  0  0  0  0  0  0
  -11.8520   10.2760   69.8110 O   0  0  0  0  0  0  0  0  0  0  0  0
  -13.2030   11.5300   71.1450 O   0  0  0  0  0  0  0  0  0  0  0  0
  -13.0230   12.5960   72.0670 C   0  0  0  0  0  0  0  0  0  0  0  0
  -12.6270   13.8660   71.3740 C   0  0  0  0  0  0  0  0  0  0  0  0
  -12.3190   15.0500   71.9500 C   0  0  0  0  0  0  0  0  0  0  0  0
  -11.8820   16.1280   71.1760 O   0  0  0  0  0  0  0  0  0  0  0  0
  -14.2500   12.8670   72.7020 O   0  0  0  0  0  0  0  0  0  0  0  0
   -9.8060   17.9930   67.1530 C   0  0  0  0  0  0  0  0  0  0  0  0
  -10.5190   18.8110   66.2620 C   0  0  0  0  0  0  0  0  0  0  0  0
   -9.9320   19.8570   65.6580 N   0  0  0  0  0  0  0  0  0  0  0  0
  -10.6530   20.6370   64.8270 F   0  0  0  0  0  0  0  0  0  0  0  0
   -8.6640   20.1740   65.8550 N   0  0  0  0  0  0  0  0  0  0  0  0
   -7.9140   19.4480   66.6800 C   0  0  0  0  0  0  0  0  0  0  0  0
   -8.4340   18.3340   67.3800 C   0  0  0  0  0  0  0  0  0  0  0  0
   -6.5680   19.8180   66.8590 C   0  0  0  0  0  0  0  0  0  0  0  0
   -7.5330   17.6590   68.2530 C   0  0  0  0  0  0  0  0  0  0  0  0
   -6.1850   18.0740   68.4140 C   0  0  0  0  0  0  0  0  0  0  0  0
   -5.6870   19.1560   67.7180 C   0  0  0  0  0  0  0  0  0  0  0  0
   -5.2860   17.3550   69.3140 C   0  0  0  0  0  0  0  0  0  0  0  0
   -4.3850   19.6090   67.7790 O   0  0  0  0  0  0  0  0  0  0  0  0
   -3.4890   19.0770   68.7890 C   0  0  0  0  0  0  0  0  0  0  0  0
   -3.9180   17.9350   69.5920 C   0  0  0  0  0  0  0  0  0  0  0  0
   -2.1310   18.9100   68.4060 O   0  0  0  0  0  0  0  0  0  0  0  0
   -2.4270   19.9440   69.3020 C   0  0  0  0  0  0  0  0  0  0  0  0
   -3.1600   17.5270   70.4490 O   0  0  0  0  0  0  0  0  0  0  0  0
   -1.2780   20.0580   68.4960 O   0  0  0  0  0  0  0  0  0  0  0  0
   -1.8720   21.1830   68.9500 C   0  0  0  0  0  0  0  0  0  0  0  0
   -1.4390   22.1190   69.5990 O   0  0  0  0  0  0  0  0  0  0  0  0
   -5.6320   16.3160   69.8410 O   0  0  0  0  0  0  0  0  0  0  0  0
   -6.0850   20.8750   66.1840 F   0  0  0  0  0  0  0  0  0  0  0  0
  -10.3510   15.4260   65.8190 O   0  0  0  0  0  0  0  0  0  0  0  0
  -10.0500   14.0410   65.4670 C   0  0  0  0  0  0  0  0  0  0  0  0
   -9.6910   13.2740   66.6050 O   0  0  0  0  0  0  0  0  0  0  0  0
   -9.3630   11.9490   66.3290 C   0  0  0  0  0  0  0  0  0  0  0  0
   -8.3690   11.3380   66.9860 C   0  0  0  0  0  0  0  0  0  0  0  0
  -10.0970   11.1530   65.2960 C   0  0  0  0  0  0  0  0  0  0  0  0
   -7.5850   11.9810   67.9110 O   0  0  0  0  0  0  0  0  0  0  0  0
  -10.9520   11.9950   64.3680 C   0  0  0  0  0  0  0  0  0  0  0  0
  -10.0000    9.9480   65.1560 O   0  0  0  0  0  0  0  0  0  0  0  0
  -11.2250   13.4320   64.7320 C   0  0  0  0  0  0  0  0  0  0  0  0
  -11.2900   11.5990   63.2630 O   0  0  0  0  0  0  0  0  0  0  0  0
  -12.2070   14.0460   64.3360 O   0  0  0  0  0  0  0  0  0  0  0  0
  -12.4170   15.2940   73.4110 C   0  0  0  0  0  0  0  0  0  0  0  0
  -12.0850   16.5850   73.9490 O   0  0  0  0  0  0  0  0  0  0  0  0
  -13.4500   16.1250   73.9540 O   0  0  0  0  0  0  0  0  0  0  0  0
  1 40  1  0  0  0  0
  1  2  2  0  0  0  0
  1  6  1  0  0  0  0
  2  3  1  0  0  0  0
  2 17  1  0  0  0  0
  3  4  1  0  0  0  0
  4  5  2  0  0  0  0
  4 15  1  0  0  0  0
  5  6  1  0  0  0  0
  5  7  1  0  0  0  0
  7  8  1  0  0  0  0
  7 13  1  0  0  0  0
  8  9  1  0  0  0  0
  9 10  2  0  0  0  0
  9 11  1  0  0  0  0
 11 12  1  0  0  0  0
 12 13  1  0  0  0  0
 12 16  1  0  0  0  0
 13 14  2  0  0  0  0
 14 15  1  0  0  0  0
 14 52  1  0  0  0  0
 17 18  2  0  0  0  0
 17 23  1  0  0  0  0
 18 19  1  0  0  0  0
 19 20  1  0  0  0  0
 19 21  2  0  0  0  0
 21 22  1  0  0  0  0
 22 23  2  0  0  0  0
 22 24  1  0  0  0  0
 23 25  1  0  0  0  0
 24 27  2  0  0  0  0
 24 39  1  0  0  0  0
 25 26  2  0  0  0  0
 26 27  1  0  0  0  0
 26 28  1  0  0  0  0
 27 29  1  0  0  0  0
 28 31  1  0  0  0  0
 28 38  2  0  0  0  0
 29 30  1  0  0  0  0
 30 31  1  0  0  0  0
 30 32  1  0  0  0  0
 30 33  1  0  0  0  0
 31 34  2  0  0  0  0
 32 33  1  0  0  0  0
 32 35  1  0  0  0  0
 33 35  1  0  0  0  0
 33 36  1  0  0  0  0
 35 36  1  0  0  0  0
 36 37  2  0  0  0  0
 40 41  1  0  0  0  0
 41 42  1  0  0  0  0
 41 49  1  0  0  0  0
 42 43  1  0  0  0  0
 43 44  2  0  0  0  0
 43 45  1  0  0  0  0
 44 46  1  0  0  0  0
 45 47  1  0  0  0  0
 45 48  2  0  0  0  0
 47 49  1  0  0  0  0
 47 50  2  0  0  0  0
 49 51  2  0  0  0  0
 52 53  1  0  0  0  0
 52 54  1  0  0  0  0
 53 54  1  0  0  0  0
M  CHG  4  15   1  19   1  32   1  35   1
M  END