
 OpenBabel09252009283D

 52 60  0  0  1  0  0  0  0  0999 V2000
   -9.7750   15.3940   67.7500 C   0  0  0  0  0  0  0  0  0  0  0  0
   -9.7310   16.5990   68.3630 C   0  0  0  0  0  0  0  0  0  0  0  0
  -10.3190   16.8370   69.6180 O   0  0  0  0  0  0  0  0  0  0  0  0
  -11.0200   15.8110   70.2520 C   0  0  0  0  0  0  0  0  0  0  0  0
  -11.0200   14.5670   69.7510 C   0  0  0  0  0  0  0  0  0  0  0  0
  -10.3610   14.2050   68.4700 C   0  0  0  0  0  0  0  0  0  0  0  0
  -11.8020   13.5150   70.4480 C   0  0  0  0  0  0  0  0  0  0  0  0
  -11.7810   12.2990   70.0110 N   0  0  0  0  0  0  0  0  0  0  0  0
  -12.5480   11.3440   70.6410 C   0  0  0  0  0  0  0  0  0  0  0  0
  -12.5160   10.2030   70.1980 O   0  0  0  0  0  0  0  0  0  0  0  0
  -13.3570   11.6150   71.7270 N   0  0  0  0  0  0  0  0  0  0  0  0
  -13.3950   12.8210   72.1840 C   0  0  0  0  0  0  0  0  0  0  0  0
  -12.6110   13.9200   71.6150 C   0  0  0  0  0  0  0  0  0  0  0  0
  -12.5730   15.2030   72.0370 C   0  0  0  0  0  0  0  0  0  0  0  0
  -11.7360   16.1130   71.3900 N   0  0  0  0  0  0  0  0  0  0  0  0
   -9.1190   17.8080   67.7630 C   0  0  0  0  0  0  0  0  0  0  0  0
   -9.9830   18.5480   67.0320 N   0  0  0  0  0  0  0  0  0  0  0  0
   -9.4970   19.7020   66.5880 C   0  0  0  0  0  0  0  0  0  0  0  0
  -10.3230   20.3930   65.7610 O   0  0  0  0  0  0  0  0  0  0  0  0
   -8.2990   20.2290   66.8240 N   0  0  0  0  0  0  0  0  0  0  0  0
   -7.4520   19.4820   67.5280 C   0  0  0  0  0  0  0  0  0  0  0  0
   -7.7810   18.2000   68.0030 C   0  0  0  0  0  0  0  0  0  0  0  0
   -6.1900   20.0100   67.7910 C   0  0  0  0  0  0  0  0  0  0  0  0
   -6.7690   17.4400   68.6490 C   0  0  0  0  0  0  0  0  0  0  0  0
   -5.4900   17.9810   68.8480 C   0  0  0  0  0  0  0  0  0  0  0  0
   -5.2150   19.2860   68.4730 C   0  0  0  0  0  0  0  0  0  0  0  0
   -4.4040   17.1700   69.4060 C   0  0  0  0  0  0  0  0  0  0  0  0
   -4.0150   19.9060   68.6740 O   0  0  0  0  0  0  0  0  0  0  0  0
   -3.2140   19.4050   69.7500 C   0  0  0  0  0  0  0  0  0  0  0  0
   -3.1810   17.9030   69.9080 C   0  0  0  0  0  0  0  0  0  0  0  0
   -2.3180   17.3170   70.5520 O   0  0  0  0  0  0  0  0  0  0  0  0
   -4.4900   15.9560   69.4870 O   0  0  0  0  0  0  0  0  0  0  0  0
   -3.5580   20.0980   71.0400 C   0  0  0  0  0  0  0  0  0  0  0  0
   -4.3590   19.3360   71.9760 O   0  0  0  0  0  0  0  0  0  0  0  0
   -2.4910   20.8610   71.6060 O   0  0  0  0  0  0  0  0  0  0  0  0
   -3.5940   21.5530   71.2380 C   0  0  0  0  0  0  0  0  0  0  0  0
   -4.3200   22.2330   71.9230 O   0  0  0  0  0  0  0  0  0  0  0  0
   -9.2480   15.2060   66.4770 O   0  0  0  0  0  0  0  0  0  0  0  0
  -10.0120   14.3950   65.5610 C   0  0  0  0  0  0  0  0  0  0  0  0
  -10.6330   13.2870   66.2170 O   0  0  0  0  0  0  0  0  0  0  0  0
  -11.2340   12.4200   65.3190 C   0  0  0  0  0  0  0  0  0  0  0  0
  -11.0670   11.0950   65.3950 C   0  0  0  0  0  0  0  0  0  0  0  0
  -12.0960   12.9580   64.2320 C   0  0  0  0  0  0  0  0  0  0  0  0
  -10.2670   10.4950   66.3340 O   0  0  0  0  0  0  0  0  0  0  0  0
  -12.1510   14.4720   64.1990 C   0  0  0  0  0  0  0  0  0  0  0  0
  -12.6740   12.2720   63.4070 O   0  0  0  0  0  0  0  0  0  0  0  0
  -11.0630   15.2690   64.8870 C   0  0  0  0  0  0  0  0  0  0  0  0
  -13.0580   15.0370   63.6090 O   0  0  0  0  0  0  0  0  0  0  0  0
  -11.0360   16.4890   64.8070 O   0  0  0  0  0  0  0  0  0  0  0  0
  -13.3780   15.7390   73.1630 C   0  0  0  0  0  0  0  0  0  0  0  0
  -12.9290   15.6440   74.5270 O   0  0  0  0  0  0  0  0  0  0  0  0
  -12.9870   16.9260   73.8730 O   0  0  0  0  0  0  0  0  0  0  0  0
  1 38  1  0  0  0  0
  1  2  2  0  0  0  0
  1  6  1  0  0  0  0
  2  3  1  0  0  0  0
  2 16  1  0  0  0  0
  3  4  1  0  0  0  0
  4  5  2  0  0  0  0
  4 15  1  0  0  0  0
  5  6  1  0  0  0  0
  5  7  1  0  0  0  0
  7  8  2  0  0  0  0
  7 13  1  0  0  0  0
  8  9  1  0  0  0  0
  9 10  2  0  0  0  0
  9 11  1  0  0  0  0
 11 12  2  0  0  0  0
 12 13  1  0  0  0  0
 13 14  2  0  0  0  0
 14 15  1  0  0  0  0
 14 50  1  0  0  0  0
 16 17  2  0  0  0  0
 16 22  1  0  0  0  0
 17 18  1  0  0  0  0
 18 19  1  0  0  0  0
 18 20  2  0  0  0  0
 20 21  1  0  0  0  0
 21 22  2  0  0  0  0
 21 23  1  0  0  0  0
 22 24  1  0  0  0  0
 23 26  2  0  0  0  0
 24 25  2  0  0  0  0
 25 26  1  0  0  0  0
 25 27  1  0  0  0  0
 26 28  1  0  0  0  0
 27 30  1  0  0  0  0
 27 32  2  0  0  0  0
 28 29  1  0  0  0  0
 29 30  1  0  0  0  0
 29 33  1  0  0  0  0
 30 31  2  0  0  0  0
 33 34  1  0  0  0  0
 33 35  1  0  0  0  0
 33 36  1  0  0  0  0
 35 36  1  0  0  0  0
 36 37  2  0  0  0  0
 38 39  1  0  0  0  0
 39 40  1  0  0  0  0
 39 47  1  0  0  0  0
 40 41  1  0  0  0  0
 41 42  2  0  0  0  0
 41 43  1  0  0  0  0
 42 44  1  0  0  0  0
 43 45  1  0  0  0  0
 43 46  2  0  0  0  0
 45 47  1  0  0  0  0
 45 48  2  0  0  0  0
 47 49  2  0  0  0  0
 50 51  1  0  0  0  0
 50 52  1  0  0  0  0
 51 52  1  0  0  0  0
M  END
