
 OpenBabel11262001583D

 54 62  0  0  1  0  0  0  0  0999 V2000
  -10.8530   15.7630   67.1110 C   0  0  0  0  0  0  0  0  0  0  0  0
  -10.5680   16.8730   67.8180 C   0  0  0  0  0  0  0  0  0  0  0  0
  -10.9060   17.0240   69.1710 O   0  0  0  0  0  0  0  0  0  0  0  0
  -11.5820   15.9800   69.8420 C   0  0  0  0  0  0  0  0  0  0  0  0
  -11.8310   14.8070   69.2180 C   0  0  0  0  0  0  0  0  0  0  0  0
  -11.4640   14.5540   67.7810 C   0  0  0  0  0  0  0  0  0  0  0  0
  -12.5480   13.6660   69.9080 C   0  0  0  0  0  0  0  0  0  0  0  0
  -11.6700   12.5700   69.9900 O   0  0  0  0  0  0  0  0  0  0  0  0
  -12.1240   11.4710   70.6670 C   0  0  0  0  0  0  0  0  0  0  0  0
  -11.5830   10.3890   70.5140 O   0  0  0  0  0  0  0  0  0  0  0  0
  -13.1810   11.6530   71.5060 O   0  0  0  0  0  0  0  0  0  0  0  0
  -13.5420   12.8720   71.9400 C   0  0  0  0  0  0  0  0  0  0  0  0
  -14.3850   13.0700   72.8010 O   0  0  0  0  0  0  0  0  0  0  0  0
  -12.8930   14.0060   71.2910 C   0  0  0  0  0  0  0  0  0  0  0  0
  -12.6470   15.1960   71.8730 C   0  0  0  0  0  0  0  0  0  0  0  0
  -11.9850   16.1870   71.1540 O   0  0  0  0  0  0  0  0  0  0  0  0
   -9.8640   18.0230   67.1760 C   0  0  0  0  0  0  0  0  0  0  0  0
  -10.5710   18.8310   66.2820 C   0  0  0  0  0  0  0  0  0  0  0  0
   -9.9640   19.8650   65.6960 N   0  0  0  0  0  0  0  0  0  0  0  0
  -10.6590   20.6440   64.8410 F   0  0  0  0  0  0  0  0  0  0  0  0
   -8.7050   20.1670   65.9360 N   0  0  0  0  0  0  0  0  0  0  0  0
   -7.9870   19.4000   66.7810 C   0  0  0  0  0  0  0  0  0  0  0  0
   -8.5330   18.2840   67.4060 N   0  0  0  0  0  0  0  0  0  0  0  0
   -6.6450   19.7630   67.0700 C   0  0  0  0  0  0  0  0  0  0  0  0
   -7.7560   17.5210   68.2250 C   0  0  0  0  0  0  0  0  0  0  0  0
   -6.4580   17.8890   68.5490 C   0  0  0  0  0  0  0  0  0  0  0  0
   -5.7400   17.1410   69.5720 C   0  0  0  0  0  0  0  0  0  0  0  0
   -5.9160   19.0380   68.0270 C   0  0  0  0  0  0  0  0  0  0  0  0
   -6.2800   16.1790   70.0880 O   0  0  0  0  0  0  0  0  0  0  0  0
   -4.3900   17.6830   69.9740 C   0  0  0  0  0  0  0  0  0  0  0  0
   -3.5220   16.9310   70.3810 O   0  0  0  0  0  0  0  0  0  0  0  0
   -4.2660   19.1780   69.7780 C   0  0  0  0  0  0  0  0  0  0  0  0
   -4.7250   19.5670   68.4560 O   0  0  0  0  0  0  0  0  0  0  0  0
   -6.1200   21.0030   66.6400 N   0  0  0  0  0  0  0  0  0  0  0  0
   -4.9360   19.9510   70.8960 C   0  0  0  0  0  0  0  0  0  0  0  0
   -6.2890   20.3620   70.6560 O   0  0  0  0  0  0  0  0  0  0  0  0
   -4.6350   19.5140   72.2280 O   0  0  0  0  0  0  0  0  0  0  0  0
   -4.2330   20.7440   71.8960 C   0  0  0  0  0  0  0  0  0  0  0  0
   -3.1320   21.2780   71.8900 O   0  0  0  0  0  0  0  0  0  0  0  0
  -10.5160   15.6950   65.7640 O   0  0  0  0  0  0  0  0  0  0  0  0
  -10.1440   14.3840   65.2430 C   0  0  0  0  0  0  0  0  0  0  0  0
   -9.6970   13.5570   66.3240 O   0  0  0  0  0  0  0  0  0  0  0  0
   -9.5340   12.2220   65.9740 C   0  0  0  0  0  0  0  0  0  0  0  0
   -8.6530   11.4460   66.6160 C   0  0  0  0  0  0  0  0  0  0  0  0
  -10.4160   11.5800   64.9410 C   0  0  0  0  0  0  0  0  0  0  0  0
   -7.8410   11.9050   67.6250 O   0  0  0  0  0  0  0  0  0  0  0  0
  -11.4650   12.4800   64.4240 C   0  0  0  0  0  0  0  0  0  0  0  0
  -10.3010   10.4190   64.5890 O   0  0  0  0  0  0  0  0  0  0  0  0
  -11.3500   13.8000   64.5800 C   0  0  0  0  0  0  0  0  0  0  0  0
  -12.5160   11.9160   63.8050 F   0  0  0  0  0  0  0  0  0  0  0  0
  -12.3360   14.6150   64.1460 F   0  0  0  0  0  0  0  0  0  0  0  0
  -13.0400   15.5730   73.2570 C   0  0  0  0  0  0  0  0  0  0  0  0
  -12.1870   15.2120   74.3610 O   0  0  0  0  0  0  0  0  0  0  0  0
  -12.3100   16.5880   73.9610 O   0  0  0  0  0  0  0  0  0  0  0  0
  1 40  1  0  0  0  0
  1  2  2  0  0  0  0
  1  6  1  0  0  0  0
  2  3  1  0  0  0  0
  2 17  1  0  0  0  0
  3  4  1  0  0  0  0
  4  5  2  0  0  0  0
  4 16  1  0  0  0  0
  5  6  1  0  0  0  0
  5  7  1  0  0  0  0
  7  8  1  0  0  0  0
  7 14  1  0  0  0  0
  8  9  1  0  0  0  0
  9 10  2  0  0  0  0
  9 11  1  0  0  0  0
 11 12  1  0  0  0  0
 12 13  2  0  0  0  0
 12 14  1  0  0  0  0
 14 15  2  0  0  0  0
 15 16  1  0  0  0  0
 15 52  1  0  0  0  0
 17 18  2  0  0  0  0
 17 23  1  0  0  0  0
 18 19  1  0  0  0  0
 19 20  1  0  0  0  0
 19 21  2  0  0  0  0
 21 22  1  0  0  0  0
 22 23  2  0  0  0  0
 22 24  1  0  0  0  0
 23 25  1  0  0  0  0
 24 28  2  0  0  0  0
 24 34  1  0  0  0  0
 25 26  2  0  0  0  0
 26 27  1  0  0  0  0
 26 28  1  0  0  0  0
 27 29  2  0  0  0  0
 27 30  1  0  0  0  0
 28 33  1  0  0  0  0
 30 31  2  0  0  0  0
 30 32  1  0  0  0  0
 32 33  1  0  0  0  0
 32 35  1  0  0  0  0
 35 36  1  0  0  0  0
 35 37  1  0  0  0  0
 35 38  1  0  0  0  0
 37 38  1  0  0  0  0
 38 39  2  0  0  0  0
 40 41  1  0  0  0  0
 41 42  1  0  0  0  0
 41 49  1  0  0  0  0
 42 43  1  0  0  0  0
 43 44  2  0  0  0  0
 43 45  1  0  0  0  0
 44 46  1  0  0  0  0
 45 47  1  0  0  0  0
 45 48  2  0  0  0  0
 47 49  2  0  0  0  0
 47 50  1  0  0  0  0
 49 51  1  0  0  0  0
 52 53  1  0  0  0  0
 52 54  1  0  0  0  0
 53 54  1  0  0  0  0
M  CHG  3  16   1  19   1  23   1
M  END