
 OpenBabel09222002323D

 53 62  0  0  1  0  0  0  0  0999 V2000
  -12.7530   10.4960   69.7900 O   0  0  0  0  0  0  0  0  0  0  0  0
  -12.5980   11.6100   70.2790 C   0  0  0  0  0  0  0  0  0  0  0  0
  -12.6980   11.8280   71.6120 N   0  0  0  0  0  0  0  0  0  0  0  0
  -12.8770   13.1500   72.1850 C   0  0  0  0  0  0  0  0  0  0  0  0
  -12.2250   14.2040   71.3430 C   0  0  0  0  0  0  0  0  0  0  0  0
  -11.9840   13.9600   69.9940 C   0  0  0  0  0  0  0  0  0  0  0  0
  -12.2600   12.6770   69.5030 N   0  0  0  0  0  0  0  0  0  0  0  0
  -11.4800   14.9720   69.1650 C   0  0  0  0  0  0  0  0  0  0  0  0
  -11.2260   14.7650   67.7040 C   0  0  0  0  0  0  0  0  0  0  0  0
  -10.5650   15.9320   67.0180 C   0  0  0  0  0  0  0  0  0  0  0  0
  -10.3510   17.0740   67.7070 C   0  0  0  0  0  0  0  0  0  0  0  0
  -10.6940   17.2560   69.0390 O   0  0  0  0  0  0  0  0  0  0  0  0
  -11.2110   16.2010   69.7550 C   0  0  0  0  0  0  0  0  0  0  0  0
  -11.4220   16.4650   71.0640 N   0  0  0  0  0  0  0  0  0  0  0  0
  -11.9220   15.4660   71.8040 C   0  0  0  0  0  0  0  0  0  0  0  0
  -12.1340   15.8040   73.1010 O   0  0  0  0  0  0  0  0  0  0  0  0
   -9.6870   18.2550   67.1200 C   0  0  0  0  0  0  0  0  0  0  0  0
  -10.4410   18.8990   66.1910 N   0  0  0  0  0  0  0  0  0  0  0  0
   -9.9190   20.0060   65.6290 C   0  0  0  0  0  0  0  0  0  0  0  0
   -8.6760   20.5220   65.9480 C   0  0  0  0  0  0  0  0  0  0  0  0
   -7.8830   19.8450   66.8790 C   0  0  0  0  0  0  0  0  0  0  0  0
   -8.3800   18.6650   67.4820 C   0  0  0  0  0  0  0  0  0  0  0  0
   -6.6000   20.3230   67.2090 C   0  0  0  0  0  0  0  0  0  0  0  0
   -7.5360   17.9770   68.3820 C   0  0  0  0  0  0  0  0  0  0  0  0
   -6.2520   18.4560   68.6750 C   0  0  0  0  0  0  0  0  0  0  0  0
   -5.7850   19.6350   68.1080 C   0  0  0  0  0  0  0  0  0  0  0  0
   -5.3730   17.6850   69.5610 C   0  0  0  0  0  0  0  0  0  0  0  0
   -4.5570   20.1900   68.3430 O   0  0  0  0  0  0  0  0  0  0  0  0
   -3.8040   19.6640   69.4410 C   0  0  0  0  0  0  0  0  0  0  0  0
   -3.9520   18.1790   69.6660 C   0  0  0  0  0  0  0  0  0  0  0  0
   -3.0310   17.4170   69.9240 O   0  0  0  0  0  0  0  0  0  0  0  0
   -5.7460   16.6890   70.1580 O   0  0  0  0  0  0  0  0  0  0  0  0
   -4.1050   20.4230   70.6920 C   0  0  0  0  0  0  0  0  0  0  0  0
   -5.2540   21.3050   70.6550 O   0  0  0  0  0  0  0  0  0  0  0  0
   -3.9430   19.6710   71.8970 O   0  0  0  0  0  0  0  0  0  0  0  0
   -3.1130   20.7200   71.7250 C   0  0  0  0  0  0  0  0  0  0  0  0
   -2.9650   21.7070   72.4050 O   0  0  0  0  0  0  0  0  0  0  0  0
  -10.2160   15.8280   65.6700 O   0  0  0  0  0  0  0  0  0  0  0  0
  -10.3530   14.5510   65.0470 C   0  0  0  0  0  0  0  0  0  0  0  0
   -9.9960   13.5080   65.9630 O   0  0  0  0  0  0  0  0  0  0  0  0
   -9.7780   12.2440   65.3180 C   0  0  0  0  0  0  0  0  0  0  0  0
  -10.9370   11.8510   64.4150 C   0  0  0  0  0  0  0  0  0  0  0  0
  -10.9230   10.9400   63.6020 O   0  0  0  0  0  0  0  0  0  0  0  0
  -12.0940   12.8170   64.4710 C   0  0  0  0  0  0  0  0  0  0  0  0
  -13.2430   12.4090   64.4460 O   0  0  0  0  0  0  0  0  0  0  0  0
  -11.7770   14.2950   64.5510 C   0  0  0  0  0  0  0  0  0  0  0  0
  -12.5640   15.1320   64.1380 O   0  0  0  0  0  0  0  0  0  0  0  0
   -9.4460   11.2340   66.3720 C   0  0  0  0  0  0  0  0  0  0  0  0
  -10.5510   10.7640   67.1430 O   0  0  0  0  0  0  0  0  0  0  0  0
   -9.5600   11.6430   67.7320 O   0  0  0  0  0  0  0  0  0  0  0  0
  -14.3280   13.4910   72.4030 C   0  0  0  0  0  0  0  0  0  0  0  0
  -14.6300   14.8660   72.6600 O   0  0  0  0  0  0  0  0  0  0  0  0
  -14.9780   14.2630   71.3910 O   0  0  0  0  0  0  0  0  0  0  0  0
  1  2  2  0  0  0  0
  2  3  1  0  0  0  0
  2  7  1  0  0  0  0
  3  4  1  0  0  0  0
  4 51  1  0  0  0  0
  4  5  1  0  0  0  0
  5  6  2  0  0  0  0
  5 15  1  0  0  0  0
  6  7  1  0  0  0  0
  6  8  1  0  0  0  0
  8  9  1  0  0  0  0
  8 13  2  0  0  0  0
  9 10  1  0  0  0  0
 10 11  2  0  0  0  0
 10 38  1  0  0  0  0
 11 12  1  0  0  0  0
 11 17  1  0  0  0  0
 12 13  1  0  0  0  0
 13 14  1  0  0  0  0
 14 15  2  0  0  0  0
 15 16  1  0  0  0  0
 17 18  2  0  0  0  0
 17 22  1  0  0  0  0
 18 19  1  0  0  0  0
 19 20  2  0  0  0  0
 20 21  1  0  0  0  0
 21 22  2  0  0  0  0
 21 23  1  0  0  0  0
 22 24  1  0  0  0  0
 23 26  2  0  0  0  0
 24 25  2  0  0  0  0
 25 26  1  0  0  0  0
 25 27  1  0  0  0  0
 26 28  1  0  0  0  0
 27 30  1  0  0  0  0
 27 32  2  0  0  0  0
 28 29  1  0  0  0  0
 29 30  1  0  0  0  0
 29 33  1  0  0  0  0
 30 31  2  0  0  0  0
 33 34  1  0  0  0  0
 33 35  1  0  0  0  0
 33 36  1  0  0  0  0
 35 36  1  0  0  0  0
 36 37  2  0  0  0  0
 38 39  1  0  0  0  0
 39 40  1  0  0  0  0
 39 46  1  0  0  0  0
 40 41  1  0  0  0  0
 41 42  1  0  0  0  0
 41 48  1  0  0  0  0
 42 43  2  0  0  0  0
 42 44  1  0  0  0  0
 44 45  2  0  0  0  0
 44 46  1  0  0  0  0
 46 47  2  0  0  0  0
 48 49  1  0  0  0  0
 48 50  1  0  0  0  0
 49 50  1  0  0  0  0
 51 52  1  0  0  0  0
 51 53  1  0  0  0  0
 52 53  1  0  0  0  0
M  END
