
 OpenBabel09232009233D

 51 59  0  0  1  0  0  0  0  0999 V2000
  -10.2370   15.5880   67.6230 C   0  0  0  0  0  0  0  0  0  0  0  0
  -10.3250   16.7740   68.2590 C   0  0  0  0  0  0  0  0  0  0  0  0
  -11.0190   16.9680   69.4420 O   0  0  0  0  0  0  0  0  0  0  0  0
  -11.5510   15.8820   70.0960 C   0  0  0  0  0  0  0  0  0  0  0  0
  -11.4910   14.6020   69.5750 C   0  0  0  0  0  0  0  0  0  0  0  0
  -10.8750   14.3670   68.2290 C   0  0  0  0  0  0  0  0  0  0  0  0
  -12.0540   13.5820   70.3460 C   0  0  0  0  0  0  0  0  0  0  0  0
  -12.0170   12.2520   69.9100 N   0  0  0  0  0  0  0  0  0  0  0  0
  -12.6080   11.2080   70.5450 C   0  0  0  0  0  0  0  0  0  0  0  0
  -12.5640   10.0740   70.0800 O   0  0  0  0  0  0  0  0  0  0  0  0
  -13.2650   11.4760   71.6950 N   0  0  0  0  0  0  0  0  0  0  0  0
  -13.2130   12.7340   72.3930 C   0  0  0  0  0  0  0  0  0  0  0  0
  -12.6650   13.8630   71.5740 C   0  0  0  0  0  0  0  0  0  0  0  0
  -12.6910   15.1880   72.0250 C   0  0  0  0  0  0  0  0  0  0  0  0
  -12.1240   16.1790   71.2830 N   0  0  0  0  0  0  0  0  0  0  0  0
   -9.6380   17.9940   67.7920 C   0  0  0  0  0  0  0  0  0  0  0  0
  -10.3980   18.7680   66.9850 N   0  0  0  0  0  0  0  0  0  0  0  0
   -9.8060   19.8580   66.4930 C   0  0  0  0  0  0  0  0  0  0  0  0
   -8.5420   20.2370   66.7170 N   0  0  0  0  0  0  0  0  0  0  0  0
   -7.8050   19.4600   67.5140 C   0  0  0  0  0  0  0  0  0  0  0  0
   -8.3020   18.2910   68.1100 C   0  0  0  0  0  0  0  0  0  0  0  0
   -6.4860   19.8310   67.7520 C   0  0  0  0  0  0  0  0  0  0  0  0
   -7.4490   17.5200   68.9380 C   0  0  0  0  0  0  0  0  0  0  0  0
   -6.1270   17.9240   69.1620 C   0  0  0  0  0  0  0  0  0  0  0  0
   -5.6440   19.0870   68.5770 C   0  0  0  0  0  0  0  0  0  0  0  0
   -5.2340   17.1110   69.9950 C   0  0  0  0  0  0  0  0  0  0  0  0
   -4.3770   19.5760   68.7350 O   0  0  0  0  0  0  0  0  0  0  0  0
   -3.6070   19.0430   69.8170 C   0  0  0  0  0  0  0  0  0  0  0  0
   -3.7970   17.5680   70.0690 C   0  0  0  0  0  0  0  0  0  0  0  0
   -2.8950   16.7870   70.3350 O   0  0  0  0  0  0  0  0  0  0  0  0
   -5.6190   16.1150   70.5850 O   0  0  0  0  0  0  0  0  0  0  0  0
   -3.8420   19.8370   71.0630 C   0  0  0  0  0  0  0  0  0  0  0  0
   -4.7890   19.2890   72.0140 O   0  0  0  0  0  0  0  0  0  0  0  0
   -2.6680   20.4250   71.6260 O   0  0  0  0  0  0  0  0  0  0  0  0
   -3.6040   21.2720   71.1640 C   0  0  0  0  0  0  0  0  0  0  0  0
   -4.2390   22.1250   71.7560 O   0  0  0  0  0  0  0  0  0  0  0  0
   -9.4750   15.4560   66.4720 O   0  0  0  0  0  0  0  0  0  0  0  0
   -9.7980   14.4020   65.5530 C   0  0  0  0  0  0  0  0  0  0  0  0
  -10.0460   13.1810   66.2520 O   0  0  0  0  0  0  0  0  0  0  0  0
  -10.4280   12.1180   65.4590 C   0  0  0  0  0  0  0  0  0  0  0  0
  -10.1820   10.8590   65.8200 C   0  0  0  0  0  0  0  0  0  0  0  0
  -11.1890   12.3260   64.2030 C   0  0  0  0  0  0  0  0  0  0  0  0
   -9.5160   10.5680   66.9540 F   0  0  0  0  0  0  0  0  0  0  0  0
  -11.7160   13.7310   64.0440 C   0  0  0  0  0  0  0  0  0  0  0  0
  -11.3570   11.4710   63.3510 O   0  0  0  0  0  0  0  0  0  0  0  0
  -11.0040   14.8630   64.7420 C   0  0  0  0  0  0  0  0  0  0  0  0
  -12.7140   13.9380   63.3740 O   0  0  0  0  0  0  0  0  0  0  0  0
  -11.3660   16.0200   64.5790 O   0  0  0  0  0  0  0  0  0  0  0  0
  -13.2860   15.5890   73.3570 C   0  0  0  0  0  0  0  0  0  0  0  0
  -12.4720   15.3990   74.5260 O   0  0  0  0  0  0  0  0  0  0  0  0
  -12.7450   16.7270   74.0460 O   0  0  0  0  0  0  0  0  0  0  0  0
  1 37  1  0  0  0  0
  1  2  2  0  0  0  0
  1  6  1  0  0  0  0
  2  3  1  0  0  0  0
  2 16  1  0  0  0  0
  3  4  1  0  0  0  0
  4  5  2  0  0  0  0
  4 15  1  0  0  0  0
  5  6  1  0  0  0  0
  5  7  1  0  0  0  0
  7  8  1  0  0  0  0
  7 13  2  0  0  0  0
  8  9  1  0  0  0  0
  9 10  2  0  0  0  0
  9 11  1  0  0  0  0
 11 12  1  0  0  0  0
 12 13  1  0  0  0  0
 13 14  1  0  0  0  0
 14 15  2  0  0  0  0
 14 49  1  0  0  0  0
 16 17  2  0  0  0  0
 16 21  1  0  0  0  0
 17 18  1  0  0  0  0
 18 19  2  0  0  0  0
 19 20  1  0  0  0  0
 20 21  2  0  0  0  0
 20 22  1  0  0  0  0
 21 23  1  0  0  0  0
 22 25  2  0  0  0  0
 23 24  2  0  0  0  0
 24 25  1  0  0  0  0
 24 26  1  0  0  0  0
 25 27  1  0  0  0  0
 26 29  1  0  0  0  0
 26 31  2  0  0  0  0
 27 28  1  0  0  0  0
 28 29  1  0  0  0  0
 28 32  1  0  0  0  0
 29 30  2  0  0  0  0
 32 33  1  0  0  0  0
 32 34  1  0  0  0  0
 32 35  1  0  0  0  0
 34 35  1  0  0  0  0
 35 36  2  0  0  0  0
 37 38  1  0  0  0  0
 38 39  1  0  0  0  0
 38 46  1  0  0  0  0
 39 40  1  0  0  0  0
 40 41  2  0  0  0  0
 40 42  1  0  0  0  0
 41 43  1  0  0  0  0
 42 44  1  0  0  0  0
 42 45  2  0  0  0  0
 44 46  1  0  0  0  0
 44 47  2  0  0  0  0
 46 48  2  0  0  0  0
 49 50  1  0  0  0  0
 49 51  1  0  0  0  0
 50 51  1  0  0  0  0
M  END
