
 OpenBabel11172006213D

 52 60  0  0  1  0  0  0  0  0999 V2000
   -9.8580   15.8520   67.4510 C   0  0  0  0  0  0  0  0  0  0  0  0
  -10.0100   17.0220   68.1170 C   0  0  0  0  0  0  0  0  0  0  0  0
  -10.6770   17.1290   69.3420 O   0  0  0  0  0  0  0  0  0  0  0  0
  -11.2460   15.9970   69.9120 C   0  0  0  0  0  0  0  0  0  0  0  0
  -11.1320   14.7970   69.3310 C   0  0  0  0  0  0  0  0  0  0  0  0
  -10.4150   14.5810   68.0480 C   0  0  0  0  0  0  0  0  0  0  0  0
  -11.7540   13.6220   69.9970 C   0  0  0  0  0  0  0  0  0  0  0  0
  -11.5550   12.4400   69.5060 N   0  0  0  0  0  0  0  0  0  0  0  0
  -12.1210   11.4040   70.1740 C   0  0  0  0  0  0  0  0  0  0  0  0
  -11.7990   10.2470   69.7230 N   0  0  0  0  0  0  0  0  0  0  0  0
  -12.9680   11.4580   71.2360 N   0  0  0  0  0  0  0  0  0  0  0  0
  -13.2120   12.6210   71.7690 C   0  0  0  0  0  0  0  0  0  0  0  0
  -12.5720   13.8540   71.2230 C   0  0  0  0  0  0  0  0  0  0  0  0
  -12.6080   15.1080   71.7330 C   0  0  0  0  0  0  0  0  0  0  0  0
  -11.9260   16.1420   71.0930 N   0  0  0  0  0  0  0  0  0  0  0  0
  -14.0830   12.5930   72.8280 N   0  0  0  0  0  0  0  0  0  0  0  0
   -9.4790   18.3100   67.6350 C   0  0  0  0  0  0  0  0  0  0  0  0
  -10.2680   19.0800   66.7920 C   0  0  0  0  0  0  0  0  0  0  0  0
   -9.8680   20.2660   66.2980 N   0  0  0  0  0  0  0  0  0  0  0  0
   -8.6450   20.7570   66.6470 N   0  0  0  0  0  0  0  0  0  0  0  0
   -7.8320   20.0720   67.4620 C   0  0  0  0  0  0  0  0  0  0  0  0
   -8.2000   18.8100   67.9760 C   0  0  0  0  0  0  0  0  0  0  0  0
   -6.6030   20.6260   67.8150 C   0  0  0  0  0  0  0  0  0  0  0  0
   -7.2750   18.1270   68.8010 C   0  0  0  0  0  0  0  0  0  0  0  0
   -6.0510   18.7150   69.1420 C   0  0  0  0  0  0  0  0  0  0  0  0
   -5.7120   19.9700   68.6650 C   0  0  0  0  0  0  0  0  0  0  0  0
   -5.1190   18.0200   70.0300 C   0  0  0  0  0  0  0  0  0  0  0  0
   -4.5640   20.6460   68.9640 O   0  0  0  0  0  0  0  0  0  0  0  0
   -3.6560   20.0730   69.9170 C   0  0  0  0  0  0  0  0  0  0  0  0
   -3.7200   18.5710   70.0630 C   0  0  0  0  0  0  0  0  0  0  0  0
   -2.7600   17.8380   70.2420 O   0  0  0  0  0  0  0  0  0  0  0  0
   -5.4480   17.0720   70.7230 O   0  0  0  0  0  0  0  0  0  0  0  0
   -3.8000   20.7430   71.2570 C   0  0  0  0  0  0  0  0  0  0  0  0
   -5.0940   21.3620   71.5160 O   0  0  0  0  0  0  0  0  0  0  0  0
   -3.2880   20.0330   72.3760 O   0  0  0  0  0  0  0  0  0  0  0  0
   -2.6610   21.1730   72.0050 C   0  0  0  0  0  0  0  0  0  0  0  0
   -1.5050   21.3510   71.7030 O   0  0  0  0  0  0  0  0  0  0  0  0
   -9.1960   15.7950   66.2230 O   0  0  0  0  0  0  0  0  0  0  0  0
   -9.7160   14.9270   65.1910 C   0  0  0  0  0  0  0  0  0  0  0  0
   -9.8440   13.5760   65.6540 O   0  0  0  0  0  0  0  0  0  0  0  0
  -10.3660   12.7000   64.7190 C   0  0  0  0  0  0  0  0  0  0  0  0
   -9.8720   11.4720   64.5160 C   0  0  0  0  0  0  0  0  0  0  0  0
  -11.5730   13.0950   63.9550 C   0  0  0  0  0  0  0  0  0  0  0  0
   -8.7700   10.9860   65.1640 O   0  0  0  0  0  0  0  0  0  0  0  0
  -12.0780   14.4440   64.4000 C   0  0  0  0  0  0  0  0  0  0  0  0
  -12.0800   12.4650   63.0460 O   0  0  0  0  0  0  0  0  0  0  0  0
  -11.0420   15.5040   64.6840 C   0  0  0  0  0  0  0  0  0  0  0  0
  -13.2660   14.6390   64.5860 O   0  0  0  0  0  0  0  0  0  0  0  0
  -11.2530   16.6730   64.3940 O   0  0  0  0  0  0  0  0  0  0  0  0
  -13.3070   15.5120   72.9740 C   0  0  0  0  0  0  0  0  0  0  0  0
  -12.7110   15.2920   74.2690 O   0  0  0  0  0  0  0  0  0  0  0  0
  -12.8790   16.6320   73.7660 O   0  0  0  0  0  0  0  0  0  0  0  0
  1 38  1  0  0  0  0
  1  2  2  0  0  0  0
  1  6  1  0  0  0  0
  2  3  1  0  0  0  0
  2 17  1  0  0  0  0
  3  4  1  0  0  0  0
  4  5  2  0  0  0  0
  4 15  1  0  0  0  0
  5  6  1  0  0  0  0
  5  7  1  0  0  0  0
  7  8  2  0  0  0  0
  7 13  1  0  0  0  0
  8  9  1  0  0  0  0
  9 10  2  0  0  0  0
  9 11  1  0  0  0  0
 11 12  2  0  0  0  0
 12 13  1  0  0  0  0
 12 16  1  0  0  0  0
 13 14  2  0  0  0  0
 14 15  1  0  0  0  0
 14 50  1  0  0  0  0
 17 18  2  0  0  0  0
 17 22  1  0  0  0  0
 18 19  1  0  0  0  0
 19 20  2  0  0  0  0
 20 21  1  0  0  0  0
 21 22  2  0  0  0  0
 21 23  1  0  0  0  0
 22 24  1  0  0  0  0
 23 26  2  0  0  0  0
 24 25  2  0  0  0  0
 25 26  1  0  0  0  0
 25 27  1  0  0  0  0
 26 28  1  0  0  0  0
 27 30  1  0  0  0  0
 27 32  2  0  0  0  0
 28 29  1  0  0  0  0
 29 30  1  0  0  0  0
 29 33  1  0  0  0  0
 30 31  2  0  0  0  0
 33 34  1  0  0  0  0
 33 35  1  0  0  0  0
 33 36  1  0  0  0  0
 35 36  1  0  0  0  0
 36 37  2  0  0  0  0
 38 39  1  0  0  0  0
 39 40  1  0  0  0  0
 39 47  1  0  0  0  0
 40 41  1  0  0  0  0
 41 42  2  0  0  0  0
 41 43  1  0  0  0  0
 42 44  1  0  0  0  0
 43 45  1  0  0  0  0
 43 46  2  0  0  0  0
 45 47  1  0  0  0  0
 45 48  2  0  0  0  0
 47 49  2  0  0  0  0
 50 51  1  0  0  0  0
 50 52  1  0  0  0  0
 51 52  1  0  0  0  0
M  END
