
 OpenBabel11262013573D

 54 62  0  0  1  0  0  0  0  0999 V2000
  -11.0630   15.8100   67.3530 C   0  0  0  0  0  0  0  0  0  0  0  0
  -10.6390   16.8830   68.0550 C   0  0  0  0  0  0  0  0  0  0  0  0
  -10.7470   16.9770   69.4530 O   0  0  0  0  0  0  0  0  0  0  0  0
  -11.3650   15.9420   70.1730 C   0  0  0  0  0  0  0  0  0  0  0  0
  -11.7780   14.8270   69.5480 C   0  0  0  0  0  0  0  0  0  0  0  0
  -11.6340   14.6210   68.0780 C   0  0  0  0  0  0  0  0  0  0  0  0
  -12.4900   13.7140   70.2580 C   0  0  0  0  0  0  0  0  0  0  0  0
  -11.6760   12.5620   70.2020 O   0  0  0  0  0  0  0  0  0  0  0  0
  -12.2230   11.4380   70.7480 C   0  0  0  0  0  0  0  0  0  0  0  0
  -11.8100   10.3280   70.4660 O   0  0  0  0  0  0  0  0  0  0  0  0
  -13.2590   11.6510   71.5990 O   0  0  0  0  0  0  0  0  0  0  0  0
  -13.4030   12.8720   72.3210 C   0  0  0  0  0  0  0  0  0  0  0  0
  -12.6720   14.0030   71.6910 C   0  0  0  0  0  0  0  0  0  0  0  0
  -12.2320   15.1360   72.2790 C   0  0  0  0  0  0  0  0  0  0  0  0
  -11.5520   16.0970   71.5340 O   0  0  0  0  0  0  0  0  0  0  0  0
  -14.7580   13.2710   72.2860 O   0  0  0  0  0  0  0  0  0  0  0  0
   -9.9600   18.0440   67.4150 C   0  0  0  0  0  0  0  0  0  0  0  0
  -10.6980   18.7840   66.4870 C   0  0  0  0  0  0  0  0  0  0  0  0
  -10.0930   19.8160   65.8030 C   0  0  0  0  0  0  0  0  0  0  0  0
  -10.7950   20.5080   64.9010 F   0  0  0  0  0  0  0  0  0  0  0  0
   -8.7720   20.1270   66.0270 C   0  0  0  0  0  0  0  0  0  0  0  0
   -8.0400   19.4050   66.9740 C   0  0  0  0  0  0  0  0  0  0  0  0
   -8.6430   18.3600   67.6690 N   0  0  0  0  0  0  0  0  0  0  0  0
   -6.6900   19.7220   67.2340 C   0  0  0  0  0  0  0  0  0  0  0  0
   -7.8980   17.6790   68.5870 C   0  0  0  0  0  0  0  0  0  0  0  0
   -6.5660   17.9990   68.8400 C   0  0  0  0  0  0  0  0  0  0  0  0
   -5.8100   17.1900   69.7880 C   0  0  0  0  0  0  0  0  0  0  0  0
   -5.9490   19.0380   68.1860 C   0  0  0  0  0  0  0  0  0  0  0  0
   -6.3410   16.2130   70.2900 O   0  0  0  0  0  0  0  0  0  0  0  0
   -4.3720   17.5920   70.0370 C   0  0  0  0  0  0  0  0  0  0  0  0
   -3.5770   16.7860   70.4900 O   0  0  0  0  0  0  0  0  0  0  0  0
   -4.0610   19.0250   69.6600 C   0  0  0  0  0  0  0  0  0  0  0  0
   -4.6570   19.4160   68.4050 O   0  0  0  0  0  0  0  0  0  0  0  0
   -6.1050   20.7140   66.5470 F   0  0  0  0  0  0  0  0  0  0  0  0
   -4.4660   19.9760   70.7380 C   0  0  0  0  0  0  0  0  0  0  0  0
   -5.6470   20.7860   70.4730 O   0  0  0  0  0  0  0  0  0  0  0  0
   -4.3550   19.4910   72.0720 O   0  0  0  0  0  0  0  0  0  0  0  0
   -3.5270   20.4910   71.7260 C   0  0  0  0  0  0  0  0  0  0  0  0
   -3.4070   21.6140   72.1710 O   0  0  0  0  0  0  0  0  0  0  0  0
  -10.9880   15.7820   65.9620 O   0  0  0  0  0  0  0  0  0  0  0  0
  -10.7340   14.5100   65.3090 C   0  0  0  0  0  0  0  0  0  0  0  0
  -10.5420   13.4730   66.2760 O   0  0  0  0  0  0  0  0  0  0  0  0
  -10.1040   12.2930   65.6950 C   0  0  0  0  0  0  0  0  0  0  0  0
   -9.0860   11.5980   66.2070 C   0  0  0  0  0  0  0  0  0  0  0  0
  -10.7810   11.7940   64.4730 C   0  0  0  0  0  0  0  0  0  0  0  0
   -8.4070   12.0390   67.2850 F   0  0  0  0  0  0  0  0  0  0  0  0
  -11.9600   12.6640   64.0740 C   0  0  0  0  0  0  0  0  0  0  0  0
  -10.3980   10.8480   63.8120 O   0  0  0  0  0  0  0  0  0  0  0  0
  -11.9030   14.1470   64.4040 C   0  0  0  0  0  0  0  0  0  0  0  0
  -12.9540   12.1770   63.5670 O   0  0  0  0  0  0  0  0  0  0  0  0
  -12.7060   14.9520   63.9570 O   0  0  0  0  0  0  0  0  0  0  0  0
  -12.4770   15.4660   73.7030 C   0  0  0  0  0  0  0  0  0  0  0  0
  -12.2000   16.7830   74.2080 O   0  0  0  0  0  0  0  0  0  0  0  0
  -13.5600   16.3300   74.0730 O   0  0  0  0  0  0  0  0  0  0  0  0
  1 40  1  0  0  0  0
  1  2  2  0  0  0  0
  1  6  1  0  0  0  0
  2  3  1  0  0  0  0
  2 17  1  0  0  0  0
  3  4  1  0  0  0  0
  4  5  2  0  0  0  0
  4 15  1  0  0  0  0
  5  6  1  0  0  0  0
  5  7  1  0  0  0  0
  7  8  1  0  0  0  0
  7 13  1  0  0  0  0
  8  9  1  0  0  0  0
  9 10  2  0  0  0  0
  9 11  1  0  0  0  0
 11 12  1  0  0  0  0
 12 13  1  0  0  0  0
 12 16  1  0  0  0  0
 13 14  2  0  0  0  0
 14 15  1  0  0  0  0
 14 52  1  0  0  0  0
 17 18  2  0  0  0  0
 17 23  1  0  0  0  0
 18 19  1  0  0  0  0
 19 20  1  0  0  0  0
 19 21  2  0  0  0  0
 21 22  1  0  0  0  0
 22 23  2  0  0  0  0
 22 24  1  0  0  0  0
 23 25  1  0  0  0  0
 24 28  2  0  0  0  0
 24 34  1  0  0  0  0
 25 26  2  0  0  0  0
 26 27  1  0  0  0  0
 26 28  1  0  0  0  0
 27 29  2  0  0  0  0
 27 30  1  0  0  0  0
 28 33  1  0  0  0  0
 30 31  2  0  0  0  0
 30 32  1  0  0  0  0
 32 33  1  0  0  0  0
 32 35  1  0  0  0  0
 35 36  1  0  0  0  0
 35 37  1  0  0  0  0
 35 38  1  0  0  0  0
 37 38  1  0  0  0  0
 38 39  2  0  0  0  0
 40 41  1  0  0  0  0
 41 42  1  0  0  0  0
 41 49  1  0  0  0  0
 42 43  1  0  0  0  0
 43 44  2  0  0  0  0
 43 45  1  0  0  0  0
 44 46  1  0  0  0  0
 45 47  1  0  0  0  0
 45 48  2  0  0  0  0
 47 49  1  0  0  0  0
 47 50  2  0  0  0  0
 49 51  2  0  0  0  0
 52 53  1  0  0  0  0
 52 54  1  0  0  0  0
 53 54  1  0  0  0  0
M  CHG  2  15   1  23   1
M  END