
 OpenBabel12012019093D

 54 62  0  0  1  0  0  0  0  0999 V2000
  -11.2050   15.9710   67.2600 C   0  0  0  0  0  0  0  0  0  0  0  0
  -10.6890   16.9920   67.9710 C   0  0  0  0  0  0  0  0  0  0  0  0
  -10.8930   17.1540   69.3320 O   0  0  0  0  0  0  0  0  0  0  0  0
  -11.5400   16.1500   70.0500 C   0  0  0  0  0  0  0  0  0  0  0  0
  -12.0470   15.0660   69.4380 C   0  0  0  0  0  0  0  0  0  0  0  0
  -12.0240   14.9100   67.9510 C   0  0  0  0  0  0  0  0  0  0  0  0
  -12.6710   13.9470   70.2160 C   0  0  0  0  0  0  0  0  0  0  0  0
  -11.8890   12.7840   69.9630 O   0  0  0  0  0  0  0  0  0  0  0  0
  -11.9960   11.6820   70.7480 C   0  0  0  0  0  0  0  0  0  0  0  0
  -11.4480   10.6340   70.4350 O   0  0  0  0  0  0  0  0  0  0  0  0
  -12.7070   11.7990   71.8940 O   0  0  0  0  0  0  0  0  0  0  0  0
  -13.2660   13.0200   72.3610 C   0  0  0  0  0  0  0  0  0  0  0  0
  -12.6820   14.1900   71.6700 C   0  0  0  0  0  0  0  0  0  0  0  0
  -12.2000   15.3200   72.2270 C   0  0  0  0  0  0  0  0  0  0  0  0
  -11.6220   16.3130   71.4260 O   0  0  0  0  0  0  0  0  0  0  0  0
  -14.6570   13.0230   72.0980 O   0  0  0  0  0  0  0  0  0  0  0  0
   -9.7680   17.9700   67.3750 C   0  0  0  0  0  0  0  0  0  0  0  0
  -10.2930   18.8200   66.4090 C   0  0  0  0  0  0  0  0  0  0  0  0
   -9.5410   19.7820   65.8700 N   0  0  0  0  0  0  0  0  0  0  0  0
  -10.0770   20.5840   64.9320 F   0  0  0  0  0  0  0  0  0  0  0  0
   -8.2870   19.9870   66.2280 N   0  0  0  0  0  0  0  0  0  0  0  0
   -7.7270   19.2030   67.1560 C   0  0  0  0  0  0  0  0  0  0  0  0
   -8.4280   18.1440   67.7630 C   0  0  0  0  0  0  0  0  0  0  0  0
   -6.4130   19.4450   67.5500 C   0  0  0  0  0  0  0  0  0  0  0  0
   -7.7570   17.3330   68.7110 C   0  0  0  0  0  0  0  0  0  0  0  0
   -6.4300   17.6020   69.0750 C   0  0  0  0  0  0  0  0  0  0  0  0
   -5.7420   16.7670   70.0650 C   0  0  0  0  0  0  0  0  0  0  0  0
   -5.7600   18.6810   68.5210 C   0  0  0  0  0  0  0  0  0  0  0  0
   -6.2790   15.7950   70.5660 O   0  0  0  0  0  0  0  0  0  0  0  0
   -4.3320   17.1750   70.4210 C   0  0  0  0  0  0  0  0  0  0  0  0
   -3.5340   16.3580   70.8540 O   0  0  0  0  0  0  0  0  0  0  0  0
   -4.0340   18.6340   70.1760 C   0  0  0  0  0  0  0  0  0  0  0  0
   -4.5090   19.0850   68.8940 O   0  0  0  0  0  0  0  0  0  0  0  0
   -5.7580   20.4800   66.9970 F   0  0  0  0  0  0  0  0  0  0  0  0
   -4.4760   19.5090   71.3250 C   0  0  0  0  0  0  0  0  0  0  0  0
   -5.7120   19.1350   71.9620 O   0  0  0  0  0  0  0  0  0  0  0  0
   -3.4390   19.9200   72.2310 O   0  0  0  0  0  0  0  0  0  0  0  0
   -4.0490   20.8840   71.5260 C   0  0  0  0  0  0  0  0  0  0  0  0
   -3.6230   21.7320   70.7680 O   0  0  0  0  0  0  0  0  0  0  0  0
  -10.9040   15.8230   65.9110 O   0  0  0  0  0  0  0  0  0  0  0  0
  -10.6050   14.4860   65.4790 C   0  0  0  0  0  0  0  0  0  0  0  0
  -10.2160   13.6650   66.5750 O   0  0  0  0  0  0  0  0  0  0  0  0
   -9.8310   12.3830   66.2180 C   0  0  0  0  0  0  0  0  0  0  0  0
   -8.8730   11.7500   66.9050 C   0  0  0  0  0  0  0  0  0  0  0  0
  -10.4860   11.6610   65.0860 C   0  0  0  0  0  0  0  0  0  0  0  0
   -8.2040   12.3400   67.9470 O   0  0  0  0  0  0  0  0  0  0  0  0
  -11.5530   12.4680   64.3680 C   0  0  0  0  0  0  0  0  0  0  0  0
  -10.1790   10.5370   64.7270 O   0  0  0  0  0  0  0  0  0  0  0  0
  -11.8310   13.8730   64.8380 C   0  0  0  0  0  0  0  0  0  0  0  0
  -12.1240   12.0330   63.3820 O   0  0  0  0  0  0  0  0  0  0  0  0
  -12.9180   14.4090   64.6880 O   0  0  0  0  0  0  0  0  0  0  0  0
  -12.2270   15.6070   73.6780 C   0  0  0  0  0  0  0  0  0  0  0  0
  -12.1300   16.9490   74.1790 O   0  0  0  0  0  0  0  0  0  0  0  0
  -13.3620   16.2150   74.3160 O   0  0  0  0  0  0  0  0  0  0  0  0
  1 40  1  0  0  0  0
  1  2  2  0  0  0  0
  1  6  1  0  0  0  0
  2  3  1  0  0  0  0
  2 17  1  0  0  0  0
  3  4  1  0  0  0  0
  4  5  2  0  0  0  0
  4 15  1  0  0  0  0
  5  6  1  0  0  0  0
  5  7  1  0  0  0  0
  7  8  1  0  0  0  0
  7 13  1  0  0  0  0
  8  9  1  0  0  0  0
  9 10  2  0  0  0  0
  9 11  1  0  0  0  0
 11 12  1  0  0  0  0
 12 13  1  0  0  0  0
 12 16  1  0  0  0  0
 13 14  2  0  0  0  0
 14 15  1  0  0  0  0
 14 52  1  0  0  0  0
 17 18  2  0  0  0  0
 17 23  1  0  0  0  0
 18 19  1  0  0  0  0
 19 20  1  0  0  0  0
 19 21  2  0  0  0  0
 21 22  1  0  0  0  0
 22 23  2  0  0  0  0
 22 24  1  0  0  0  0
 23 25  1  0  0  0  0
 24 28  2  0  0  0  0
 24 34  1  0  0  0  0
 25 26  2  0  0  0  0
 26 27  1  0  0  0  0
 26 28  1  0  0  0  0
 27 29  2  0  0  0  0
 27 30  1  0  0  0  0
 28 33  1  0  0  0  0
 30 31  2  0  0  0  0
 30 32  1  0  0  0  0
 32 33  1  0  0  0  0
 32 35  1  0  0  0  0
 35 36  1  0  0  0  0
 35 37  1  0  0  0  0
 35 38  1  0  0  0  0
 37 38  1  0  0  0  0
 38 39  2  0  0  0  0
 40 41  1  0  0  0  0
 41 42  1  0  0  0  0
 41 49  1  0  0  0  0
 42 43  1  0  0  0  0
 43 44  2  0  0  0  0
 43 45  1  0  0  0  0
 44 46  1  0  0  0  0
 45 47  1  0  0  0  0
 45 48  2  0  0  0  0
 47 49  1  0  0  0  0
 47 50  2  0  0  0  0
 49 51  2  0  0  0  0
 52 53  1  0  0  0  0
 52 54  1  0  0  0  0
 53 54  1  0  0  0  0
M  CHG  1  19   1
M  END