
 OpenBabel11262000523D

 54 62  0  0  1  0  0  0  0  0999 V2000
  -10.8180   15.7410   67.2620 C   0  0  0  0  0  0  0  0  0  0  0  0
  -10.5680   16.8590   67.9730 C   0  0  0  0  0  0  0  0  0  0  0  0
  -10.9150   17.0020   69.3220 O   0  0  0  0  0  0  0  0  0  0  0  0
  -11.5990   15.9600   69.9790 C   0  0  0  0  0  0  0  0  0  0  0  0
  -11.8380   14.7880   69.3540 C   0  0  0  0  0  0  0  0  0  0  0  0
  -11.4300   14.5260   67.9280 C   0  0  0  0  0  0  0  0  0  0  0  0
  -12.6020   13.6640   70.0230 C   0  0  0  0  0  0  0  0  0  0  0  0
  -11.7520   12.5380   70.1150 O   0  0  0  0  0  0  0  0  0  0  0  0
  -12.2280   11.4970   70.8430 C   0  0  0  0  0  0  0  0  0  0  0  0
  -11.6430   10.3650   70.7740 N   0  0  0  0  0  0  0  0  0  0  0  0
  -13.3040   11.6790   71.6380 O   0  0  0  0  0  0  0  0  0  0  0  0
  -13.6970   12.9050   72.0190 C   0  0  0  0  0  0  0  0  0  0  0  0
  -14.6080   13.1300   72.7990 O   0  0  0  0  0  0  0  0  0  0  0  0
  -12.9850   14.0180   71.3980 C   0  0  0  0  0  0  0  0  0  0  0  0
  -12.7240   15.2010   71.9870 C   0  0  0  0  0  0  0  0  0  0  0  0
  -12.0280   16.1740   71.2780 O   0  0  0  0  0  0  0  0  0  0  0  0
   -9.9100   18.0380   67.3450 C   0  0  0  0  0  0  0  0  0  0  0  0
  -10.6160   18.7730   66.3840 C   0  0  0  0  0  0  0  0  0  0  0  0
  -10.0600   19.8530   65.8300 N   0  0  0  0  0  0  0  0  0  0  0  0
  -10.7570   20.5670   64.9220 F   0  0  0  0  0  0  0  0  0  0  0  0
   -8.8510   20.2650   66.1630 N   0  0  0  0  0  0  0  0  0  0  0  0
   -8.1330   19.5590   67.0580 C   0  0  0  0  0  0  0  0  0  0  0  0
   -8.6280   18.4140   67.6690 N   0  0  0  0  0  0  0  0  0  0  0  0
   -6.8450   19.9950   67.4050 C   0  0  0  0  0  0  0  0  0  0  0  0
   -7.8280   17.7210   68.5360 C   0  0  0  0  0  0  0  0  0  0  0  0
   -6.5450   18.1620   68.8620 C   0  0  0  0  0  0  0  0  0  0  0  0
   -5.7340   17.3870   69.7940 C   0  0  0  0  0  0  0  0  0  0  0  0
   -6.0450   19.3190   68.3190 C   0  0  0  0  0  0  0  0  0  0  0  0
   -6.2130   16.3720   70.2680 O   0  0  0  0  0  0  0  0  0  0  0  0
   -4.3430   17.9110   70.0920 C   0  0  0  0  0  0  0  0  0  0  0  0
   -3.4740   17.1530   70.4830 O   0  0  0  0  0  0  0  0  0  0  0  0
   -4.1900   19.3970   69.8490 C   0  0  0  0  0  0  0  0  0  0  0  0
   -4.8180   19.8310   68.6170 O   0  0  0  0  0  0  0  0  0  0  0  0
   -6.3810   21.1210   66.8450 F   0  0  0  0  0  0  0  0  0  0  0  0
   -4.7390   20.1820   70.9950 C   0  0  0  0  0  0  0  0  0  0  0  0
   -6.1720   20.4660   70.9670 O   0  0  0  0  0  0  0  0  0  0  0  0
   -4.1950   19.8950   72.2690 O   0  0  0  0  0  0  0  0  0  0  0  0
   -3.9350   21.1280   71.7860 C   0  0  0  0  0  0  0  0  0  0  0  0
   -4.3130   22.2170   72.1700 O   0  0  0  0  0  0  0  0  0  0  0  0
  -10.4490   15.6850   65.9250 O   0  0  0  0  0  0  0  0  0  0  0  0
  -10.1490   14.3750   65.3440 C   0  0  0  0  0  0  0  0  0  0  0  0
   -9.9870   13.3890   66.3630 O   0  0  0  0  0  0  0  0  0  0  0  0
   -9.7500   12.1180   65.8710 C   0  0  0  0  0  0  0  0  0  0  0  0
   -8.9290   11.2820   66.5170 C   0  0  0  0  0  0  0  0  0  0  0  0
  -10.4110   11.6390   64.6120 C   0  0  0  0  0  0  0  0  0  0  0  0
   -8.2530   11.6250   67.6650 O   0  0  0  0  0  0  0  0  0  0  0  0
  -11.0810   12.6840   63.7510 C   0  0  0  0  0  0  0  0  0  0  0  0
  -10.3160   10.4650   64.2610 O   0  0  0  0  0  0  0  0  0  0  0  0
  -11.3440   13.9870   64.4800 C   0  0  0  0  0  0  0  0  0  0  0  0
  -12.2520   12.2610   63.2000 F   0  0  0  0  0  0  0  0  0  0  0  0
  -12.4210   13.8660   65.3240 F   0  0  0  0  0  0  0  0  0  0  0  0
  -13.0940   15.6120   73.3690 C   0  0  0  0  0  0  0  0  0  0  0  0
  -12.2050   15.2840   74.4570 O   0  0  0  0  0  0  0  0  0  0  0  0
  -12.3380   16.6480   74.0240 O   0  0  0  0  0  0  0  0  0  0  0  0
  1 40  1  0  0  0  0
  1  2  2  0  0  0  0
  1  6  1  0  0  0  0
  2  3  1  0  0  0  0
  2 17  1  0  0  0  0
  3  4  1  0  0  0  0
  4  5  2  0  0  0  0
  4 16  1  0  0  0  0
  5  6  1  0  0  0  0
  5  7  1  0  0  0  0
  7  8  1  0  0  0  0
  7 14  1  0  0  0  0
  8  9  1  0  0  0  0
  9 10  2  0  0  0  0
  9 11  1  0  0  0  0
 11 12  1  0  0  0  0
 12 13  2  0  0  0  0
 12 14  1  0  0  0  0
 14 15  2  0  0  0  0
 15 16  1  0  0  0  0
 15 52  1  0  0  0  0
 17 18  2  0  0  0  0
 17 23  1  0  0  0  0
 18 19  1  0  0  0  0
 19 20  1  0  0  0  0
 19 21  2  0  0  0  0
 21 22  1  0  0  0  0
 22 23  2  0  0  0  0
 22 24  1  0  0  0  0
 23 25  1  0  0  0  0
 24 28  2  0  0  0  0
 24 34  1  0  0  0  0
 25 26  2  0  0  0  0
 26 27  1  0  0  0  0
 26 28  1  0  0  0  0
 27 29  2  0  0  0  0
 27 30  1  0  0  0  0
 28 33  1  0  0  0  0
 30 31  2  0  0  0  0
 30 32  1  0  0  0  0
 32 33  1  0  0  0  0
 32 35  1  0  0  0  0
 35 36  1  0  0  0  0
 35 37  1  0  0  0  0
 35 38  1  0  0  0  0
 37 38  1  0  0  0  0
 38 39  2  0  0  0  0
 40 41  1  0  0  0  0
 41 42  1  0  0  0  0
 41 49  1  0  0  0  0
 42 43  1  0  0  0  0
 43 44  2  0  0  0  0
 43 45  1  0  0  0  0
 44 46  1  0  0  0  0
 45 47  1  0  0  0  0
 45 48  2  0  0  0  0
 47 49  1  0  0  0  0
 47 50  1  0  0  0  0
 49 51  1  0  0  0  0
 52 53  1  0  0  0  0
 52 54  1  0  0  0  0
 53 54  1  0  0  0  0
M  CHG  3  16   1  19   1  23   1
M  END