
 OpenBabel10192022283D

 51 59  0  0  1  0  0  0  0  0999 V2000
  -10.4200   15.9270   67.6030 C   0  0  0  0  0  0  0  0  0  0  0  0
  -10.3050   17.0760   68.3080 C   0  0  0  0  0  0  0  0  0  0  0  0
  -10.6820   17.1950   69.6460 O   0  0  0  0  0  0  0  0  0  0  0  0
  -11.2610   16.1070   70.2870 C   0  0  0  0  0  0  0  0  0  0  0  0
  -11.3550   14.9130   69.6830 C   0  0  0  0  0  0  0  0  0  0  0  0
  -10.8940   14.6690   68.2900 C   0  0  0  0  0  0  0  0  0  0  0  0
  -12.0180   13.8010   70.4150 C   0  0  0  0  0  0  0  0  0  0  0  0
  -12.0830   12.6200   69.8960 N   0  0  0  0  0  0  0  0  0  0  0  0
  -12.7140   11.6120   70.5980 C   0  0  0  0  0  0  0  0  0  0  0  0
  -12.6880   10.4820   70.1270 O   0  0  0  0  0  0  0  0  0  0  0  0
  -13.3690   11.8150   71.7980 N   0  0  0  0  0  0  0  0  0  0  0  0
  -13.3250   12.9850   72.3340 C   0  0  0  0  0  0  0  0  0  0  0  0
  -12.6150   14.1130   71.7310 C   0  0  0  0  0  0  0  0  0  0  0  0
  -12.4850   15.3500   72.2510 C   0  0  0  0  0  0  0  0  0  0  0  0
  -11.7610   16.3090   71.5510 N   0  0  0  0  0  0  0  0  0  0  0  0
   -9.8060   18.3350   67.7220 C   0  0  0  0  0  0  0  0  0  0  0  0
  -10.6980   18.9970   66.9510 N   0  0  0  0  0  0  0  0  0  0  0  0
  -10.2730   20.1530   66.4330 C   0  0  0  0  0  0  0  0  0  0  0  0
   -9.0650   20.7070   66.6130 N   0  0  0  0  0  0  0  0  0  0  0  0
   -8.1930   20.0330   67.3690 C   0  0  0  0  0  0  0  0  0  0  0  0
   -8.4990   18.7920   67.9460 C   0  0  0  0  0  0  0  0  0  0  0  0
   -6.9320   20.5820   67.5890 C   0  0  0  0  0  0  0  0  0  0  0  0
   -7.5020   18.0980   68.6720 C   0  0  0  0  0  0  0  0  0  0  0  0
   -6.2340   18.6560   68.8320 C   0  0  0  0  0  0  0  0  0  0  0  0
   -5.9530   19.9190   68.3340 C   0  0  0  0  0  0  0  0  0  0  0  0
   -5.1720   17.8900   69.4880 C   0  0  0  0  0  0  0  0  0  0  0  0
   -4.7650   20.5750   68.4960 O   0  0  0  0  0  0  0  0  0  0  0  0
   -3.8120   20.0150   69.4150 C   0  0  0  0  0  0  0  0  0  0  0  0
   -3.7980   18.5100   69.4510 C   0  0  0  0  0  0  0  0  0  0  0  0
   -2.7890   17.8260   69.5460 O   0  0  0  0  0  0  0  0  0  0  0  0
   -5.3720   16.8250   70.0460 O   0  0  0  0  0  0  0  0  0  0  0  0
   -3.9480   20.6200   70.7830 C   0  0  0  0  0  0  0  0  0  0  0  0
   -5.0760   21.5070   70.9760 O   0  0  0  0  0  0  0  0  0  0  0  0
   -3.6510   19.7440   71.8700 O   0  0  0  0  0  0  0  0  0  0  0  0
   -2.8340   20.8140   71.7260 C   0  0  0  0  0  0  0  0  0  0  0  0
   -2.6070   21.7130   72.4920 O   0  0  0  0  0  0  0  0  0  0  0  0
  -10.0680   15.8640   66.2590 O   0  0  0  0  0  0  0  0  0  0  0  0
   -9.8110   14.5600   65.6950 C   0  0  0  0  0  0  0  0  0  0  0  0
   -9.5850   13.5710   66.7230 O   0  0  0  0  0  0  0  0  0  0  0  0
   -9.4960   12.2600   66.2640 C   0  0  0  0  0  0  0  0  0  0  0  0
   -8.5810   11.4330   66.7820 C   0  0  0  0  0  0  0  0  0  0  0  0
  -10.5060   11.7880   65.2440 C   0  0  0  0  0  0  0  0  0  0  0  0
   -7.6930   11.7890   67.7600 O   0  0  0  0  0  0  0  0  0  0  0  0
  -10.6700   12.8310   64.1530 C   0  0  0  0  0  0  0  0  0  0  0  0
  -11.7020   11.5860   65.8650 F   0  0  0  0  0  0  0  0  0  0  0  0
  -10.9710   14.1850   64.7650 C   0  0  0  0  0  0  0  0  0  0  0  0
  -11.6550   12.4660   63.2900 F   0  0  0  0  0  0  0  0  0  0  0  0
  -12.1310   14.1290   65.4790 F   0  0  0  0  0  0  0  0  0  0  0  0
  -13.0760   15.7860   73.5360 C   0  0  0  0  0  0  0  0  0  0  0  0
  -12.4330   15.5220   74.7950 O   0  0  0  0  0  0  0  0  0  0  0  0
  -12.5120   16.8690   74.2920 O   0  0  0  0  0  0  0  0  0  0  0  0
  1 37  1  0  0  0  0
  1  2  2  0  0  0  0
  1  6  1  0  0  0  0
  2  3  1  0  0  0  0
  2 16  1  0  0  0  0
  3  4  1  0  0  0  0
  4  5  2  0  0  0  0
  4 15  1  0  0  0  0
  5  6  1  0  0  0  0
  5  7  1  0  0  0  0
  7  8  2  0  0  0  0
  7 13  1  0  0  0  0
  8  9  1  0  0  0  0
  9 10  2  0  0  0  0
  9 11  1  0  0  0  0
 11 12  2  0  0  0  0
 12 13  1  0  0  0  0
 13 14  2  0  0  0  0
 14 15  1  0  0  0  0
 14 49  1  0  0  0  0
 16 17  2  0  0  0  0
 16 21  1  0  0  0  0
 17 18  1  0  0  0  0
 18 19  2  0  0  0  0
 19 20  1  0  0  0  0
 20 21  2  0  0  0  0
 20 22  1  0  0  0  0
 21 23  1  0  0  0  0
 22 25  2  0  0  0  0
 23 24  2  0  0  0  0
 24 25  1  0  0  0  0
 24 26  1  0  0  0  0
 25 27  1  0  0  0  0
 26 29  1  0  0  0  0
 26 31  2  0  0  0  0
 27 28  1  0  0  0  0
 28 29  1  0  0  0  0
 28 32  1  0  0  0  0
 29 30  2  0  0  0  0
 32 33  1  0  0  0  0
 32 34  1  0  0  0  0
 32 35  1  0  0  0  0
 34 35  1  0  0  0  0
 35 36  2  0  0  0  0
 37 38  1  0  0  0  0
 38 39  1  0  0  0  0
 38 46  1  0  0  0  0
 39 40  1  0  0  0  0
 40 41  2  0  0  0  0
 40 42  1  0  0  0  0
 41 43  1  0  0  0  0
 42 44  1  0  0  0  0
 42 45  1  0  0  0  0
 44 46  1  0  0  0  0
 44 47  1  0  0  0  0
 46 48  1  0  0  0  0
 49 50  1  0  0  0  0
 49 51  1  0  0  0  0
 50 51  1  0  0  0  0
M  END
