
 OpenBabel11262008423D

 54 62  0  0  1  0  0  0  0  0999 V2000
  -10.9450   15.7420   67.0570 C   0  0  0  0  0  0  0  0  0  0  0  0
  -10.6720   16.8500   67.7700 C   0  0  0  0  0  0  0  0  0  0  0  0
  -11.0270   17.0060   69.1080 O   0  0  0  0  0  0  0  0  0  0  0  0
  -11.6420   15.9440   69.7820 C   0  0  0  0  0  0  0  0  0  0  0  0
  -11.9250   14.7830   69.1580 C   0  0  0  0  0  0  0  0  0  0  0  0
  -11.6430   14.5700   67.6950 C   0  0  0  0  0  0  0  0  0  0  0  0
  -12.5730   13.6290   69.8850 C   0  0  0  0  0  0  0  0  0  0  0  0
  -11.7480   12.4840   69.7350 O   0  0  0  0  0  0  0  0  0  0  0  0
  -12.2620   11.3390   70.2720 C   0  0  0  0  0  0  0  0  0  0  0  0
  -11.8940   10.2330   69.9130 O   0  0  0  0  0  0  0  0  0  0  0  0
  -13.2410   11.5440   71.1890 O   0  0  0  0  0  0  0  0  0  0  0  0
  -13.0610   12.6390   72.0740 C   0  0  0  0  0  0  0  0  0  0  0  0
  -12.6590   13.8770   71.3450 C   0  0  0  0  0  0  0  0  0  0  0  0
  -12.3590   15.0700   71.9040 C   0  0  0  0  0  0  0  0  0  0  0  0
  -11.9400   16.1290   71.1140 O   0  0  0  0  0  0  0  0  0  0  0  0
  -14.3040   12.9500   72.6720 O   0  0  0  0  0  0  0  0  0  0  0  0
   -9.9520   17.9870   67.1560 C   0  0  0  0  0  0  0  0  0  0  0  0
  -10.6360   18.7990   66.2540 C   0  0  0  0  0  0  0  0  0  0  0  0
  -10.0350   19.8630   65.7070 N   0  0  0  0  0  0  0  0  0  0  0  0
  -10.7140   20.6170   64.8200 F   0  0  0  0  0  0  0  0  0  0  0  0
   -8.7970   20.2090   66.0040 N   0  0  0  0  0  0  0  0  0  0  0  0
   -8.1060   19.5030   66.9050 C   0  0  0  0  0  0  0  0  0  0  0  0
   -8.6400   18.3550   67.5200 C   0  0  0  0  0  0  0  0  0  0  0  0
   -6.8190   19.9150   67.2630 C   0  0  0  0  0  0  0  0  0  0  0  0
   -7.8430   17.6540   68.4570 C   0  0  0  0  0  0  0  0  0  0  0  0
   -6.5500   18.0920   68.7780 C   0  0  0  0  0  0  0  0  0  0  0  0
   -5.7060   17.3080   69.6870 C   0  0  0  0  0  0  0  0  0  0  0  0
   -6.0410   19.2450   68.2100 C   0  0  0  0  0  0  0  0  0  0  0  0
   -6.0880   16.2230   70.0940 O   0  0  0  0  0  0  0  0  0  0  0  0
   -4.3490   17.8860   70.0320 C   0  0  0  0  0  0  0  0  0  0  0  0
   -3.4740   17.1810   70.5110 O   0  0  0  0  0  0  0  0  0  0  0  0
   -4.2150   19.3660   69.7460 C   0  0  0  0  0  0  0  0  0  0  0  0
   -4.8110   19.7640   68.4980 O   0  0  0  0  0  0  0  0  0  0  0  0
   -6.3130   21.0090   66.6730 F   0  0  0  0  0  0  0  0  0  0  0  0
   -4.7610   20.1900   70.8690 C   0  0  0  0  0  0  0  0  0  0  0  0
   -6.1580   20.5830   70.7740 O   0  0  0  0  0  0  0  0  0  0  0  0
   -4.3010   19.8390   72.1660 O   0  0  0  0  0  0  0  0  0  0  0  0
   -3.9310   21.0540   71.7150 C   0  0  0  0  0  0  0  0  0  0  0  0
   -4.2000   22.1560   72.1470 O   0  0  0  0  0  0  0  0  0  0  0  0
  -10.5030   15.6420   65.7490 O   0  0  0  0  0  0  0  0  0  0  0  0
  -10.3680   14.3290   65.1780 C   0  0  0  0  0  0  0  0  0  0  0  0
  -10.1530   13.3600   66.1990 O   0  0  0  0  0  0  0  0  0  0  0  0
   -9.9550   12.0840   65.6940 C   0  0  0  0  0  0  0  0  0  0  0  0
   -9.1440   11.2280   66.3140 C   0  0  0  0  0  0  0  0  0  0  0  0
  -10.6410   11.6370   64.4490 C   0  0  0  0  0  0  0  0  0  0  0  0
   -8.4860   11.5800   67.4350 F   0  0  0  0  0  0  0  0  0  0  0  0
  -11.7310   12.5880   63.9840 C   0  0  0  0  0  0  0  0  0  0  0  0
  -10.3210   10.6500   63.8140 O   0  0  0  0  0  0  0  0  0  0  0  0
  -11.6540   14.0310   64.4300 C   0  0  0  0  0  0  0  0  0  0  0  0
  -12.6530   12.2040   63.2900 O   0  0  0  0  0  0  0  0  0  0  0  0
  -12.5350   14.8460   64.1980 O   0  0  0  0  0  0  0  0  0  0  0  0
  -12.3830   15.3370   73.3620 C   0  0  0  0  0  0  0  0  0  0  0  0
  -12.0420   16.6340   73.8680 O   0  0  0  0  0  0  0  0  0  0  0  0
  -13.4080   16.1820   73.9170 O   0  0  0  0  0  0  0  0  0  0  0  0
  1 40  1  0  0  0  0
  1  2  2  0  0  0  0
  1  6  1  0  0  0  0
  2  3  1  0  0  0  0
  2 17  1  0  0  0  0
  3  4  1  0  0  0  0
  4  5  2  0  0  0  0
  4 15  1  0  0  0  0
  5  6  1  0  0  0  0
  5  7  1  0  0  0  0
  7  8  1  0  0  0  0
  7 13  1  0  0  0  0
  8  9  1  0  0  0  0
  9 10  2  0  0  0  0
  9 11  1  0  0  0  0
 11 12  1  0  0  0  0
 12 13  1  0  0  0  0
 12 16  1  0  0  0  0
 13 14  2  0  0  0  0
 14 15  1  0  0  0  0
 14 52  1  0  0  0  0
 17 18  2  0  0  0  0
 17 23  1  0  0  0  0
 18 19  1  0  0  0  0
 19 20  1  0  0  0  0
 19 21  2  0  0  0  0
 21 22  1  0  0  0  0
 22 23  2  0  0  0  0
 22 24  1  0  0  0  0
 23 25  1  0  0  0  0
 24 28  2  0  0  0  0
 24 34  1  0  0  0  0
 25 26  2  0  0  0  0
 26 27  1  0  0  0  0
 26 28  1  0  0  0  0
 27 29  2  0  0  0  0
 27 30  1  0  0  0  0
 28 33  1  0  0  0  0
 30 31  2  0  0  0  0
 30 32  1  0  0  0  0
 32 33  1  0  0  0  0
 32 35  1  0  0  0  0
 35 36  1  0  0  0  0
 35 37  1  0  0  0  0
 35 38  1  0  0  0  0
 37 38  1  0  0  0  0
 38 39  2  0  0  0  0
 40 41  1  0  0  0  0
 41 42  1  0  0  0  0
 41 49  1  0  0  0  0
 42 43  1  0  0  0  0
 43 44  2  0  0  0  0
 43 45  1  0  0  0  0
 44 46  1  0  0  0  0
 45 47  1  0  0  0  0
 45 48  2  0  0  0  0
 47 49  1  0  0  0  0
 47 50  2  0  0  0  0
 49 51  2  0  0  0  0
 52 53  1  0  0  0  0
 52 54  1  0  0  0  0
 53 54  1  0  0  0  0
M  CHG  2  15   1  19   1
M  END