
 OpenBabel11222001343D

 54 63  0  0  1  0  0  0  0  0999 V2000
  -11.1770   15.7140   67.1120 C   0  0  0  0  0  0  0  0  0  0  0  0
  -10.5050   16.6730   67.7840 C   0  0  0  0  0  0  0  0  0  0  0  0
  -10.5550   16.8000   69.1780 O   0  0  0  0  0  0  0  0  0  0  0  0
  -11.2780   15.8650   69.9360 C   0  0  0  0  0  0  0  0  0  0  0  0
  -11.8940   14.8240   69.3480 C   0  0  0  0  0  0  0  0  0  0  0  0
  -11.9430   14.6550   67.8660 C   0  0  0  0  0  0  0  0  0  0  0  0
  -12.6070   13.7570   70.1330 C   0  0  0  0  0  0  0  0  0  0  0  0
  -11.8480   12.5670   70.0130 O   0  0  0  0  0  0  0  0  0  0  0  0
  -12.2820   11.4850   70.7170 C   0  0  0  0  0  0  0  0  0  0  0  0
  -11.8270   10.3650   70.5030 O   0  0  0  0  0  0  0  0  0  0  0  0
  -13.2410   11.7240   71.6370 O   0  0  0  0  0  0  0  0  0  0  0  0
  -13.3730   12.9880   72.2880 C   0  0  0  0  0  0  0  0  0  0  0  0
  -12.6450   14.0690   71.5730 C   0  0  0  0  0  0  0  0  0  0  0  0
  -12.0640   15.1670   72.1050 C   0  0  0  0  0  0  0  0  0  0  0  0
  -11.3400   16.0380   71.3020 O   0  0  0  0  0  0  0  0  0  0  0  0
  -14.7280   13.3890   72.2460 O   0  0  0  0  0  0  0  0  0  0  0  0
   -9.5790   17.6070   67.0990 C   0  0  0  0  0  0  0  0  0  0  0  0
  -10.1490   18.7150   66.4660 C   0  0  0  0  0  0  0  0  0  0  0  0
   -9.3800   19.6300   65.8660 N   0  0  0  0  0  0  0  0  0  0  0  0
   -8.0630   19.5550   65.8670 N   0  0  0  0  0  0  0  0  0  0  0  0
   -9.9620   20.6760   65.2460 F   0  0  0  0  0  0  0  0  0  0  0  0
   -7.4510   18.5390   66.4850 C   0  0  0  0  0  0  0  0  0  0  0  0
   -8.1680   17.5020   67.1120 C   0  0  0  0  0  0  0  0  0  0  0  0
   -6.0550   18.5160   66.5370 C   0  0  0  0  0  0  0  0  0  0  0  0
   -7.4340   16.4490   67.7200 C   0  0  0  0  0  0  0  0  0  0  0  0
   -6.0290   16.4600   67.7550 C   0  0  0  0  0  0  0  0  0  0  0  0
   -5.2580   15.3910   68.3980 C   0  0  0  0  0  0  0  0  0  0  0  0
   -5.3260   17.5140   67.1920 C   0  0  0  0  0  0  0  0  0  0  0  0
   -3.8920   15.7970   68.8680 C   0  0  0  0  0  0  0  0  0  0  0  0
   -5.6430   14.1660   68.5300 N   0  0  0  0  0  0  0  0  0  0  0  0
   -3.4030   15.4000   70.0070 O   0  0  0  0  0  0  0  0  0  0  0  0
   -3.1640   16.6910   67.9010 C   0  0  0  0  0  0  0  0  0  0  0  0
   -2.1710   15.8420   70.4540 N   0  0  0  0  0  0  0  0  0  0  0  0
   -1.6650   16.9390   69.9900 C   0  0  0  0  0  0  0  0  0  0  0  0
   -2.0510   17.3760   68.6200 C   0  0  0  0  0  0  0  0  0  0  0  0
   -2.3980   18.0790   69.7610 O   0  0  0  0  0  0  0  0  0  0  0  0
   -0.9950   17.9170   67.8200 O   0  0  0  0  0  0  0  0  0  0  0  0
   -3.9690   17.6740   67.2380 O   0  0  0  0  0  0  0  0  0  0  0  0
   -5.3770   19.5160   65.9520 F   0  0  0  0  0  0  0  0  0  0  0  0
  -11.1250   15.6320   65.7200 O   0  0  0  0  0  0  0  0  0  0  0  0
  -10.7370   14.3440   65.1510 C   0  0  0  0  0  0  0  0  0  0  0  0
  -10.3570   13.4290   66.1670 O   0  0  0  0  0  0  0  0  0  0  0  0
  -10.0310   12.1590   65.7280 C   0  0  0  0  0  0  0  0  0  0  0  0
   -9.1280   11.4220   66.3820 C   0  0  0  0  0  0  0  0  0  0  0  0
  -10.7220   11.5530   64.5580 C   0  0  0  0  0  0  0  0  0  0  0  0
   -8.4840   11.8790   67.5020 O   0  0  0  0  0  0  0  0  0  0  0  0
  -11.9160   12.3610   64.1120 C   0  0  0  0  0  0  0  0  0  0  0  0
  -10.3800   10.5440   63.9760 O   0  0  0  0  0  0  0  0  0  0  0  0
  -11.8470   13.8560   64.2210 C   0  0  0  0  0  0  0  0  0  0  0  0
  -12.9680   11.8350   63.7890 O   0  0  0  0  0  0  0  0  0  0  0  0
  -12.6630   14.5820   63.6610 O   0  0  0  0  0  0  0  0  0  0  0  0
  -12.1280   15.5120   73.5420 C   0  0  0  0  0  0  0  0  0  0  0  0
  -12.0090   16.8660   73.9860 O   0  0  0  0  0  0  0  0  0  0  0  0
  -13.2810   16.1920   74.0690 O   0  0  0  0  0  0  0  0  0  0  0  0
  1 40  1  0  0  0  0
  1  2  2  0  0  0  0
  1  6  1  0  0  0  0
  2  3  1  0  0  0  0
  2 17  1  0  0  0  0
  3  4  1  0  0  0  0
  4  5  2  0  0  0  0
  4 15  1  0  0  0  0
  5  6  1  0  0  0  0
  5  7  1  0  0  0  0
  7  8  1  0  0  0  0
  7 13  1  0  0  0  0
  8  9  1  0  0  0  0
  9 10  2  0  0  0  0
  9 11  1  0  0  0  0
 11 12  1  0  0  0  0
 12 13  1  0  0  0  0
 12 16  1  0  0  0  0
 13 14  2  0  0  0  0
 14 15  1  0  0  0  0
 14 52  1  0  0  0  0
 17 18  2  0  0  0  0
 17 23  1  0  0  0  0
 18 19  1  0  0  0  0
 19 20  2  0  0  0  0
 19 21  1  0  0  0  0
 20 22  1  0  0  0  0
 22 23  2  0  0  0  0
 22 24  1  0  0  0  0
 23 25  1  0  0  0  0
 24 28  2  0  0  0  0
 24 39  1  0  0  0  0
 25 26  2  0  0  0  0
 26 27  1  0  0  0  0
 26 28  1  0  0  0  0
 27 29  1  0  0  0  0
 27 30  2  0  0  0  0
 28 38  1  0  0  0  0
 29 31  2  0  0  0  0
 29 32  1  0  0  0  0
 31 33  1  0  0  0  0
 32 35  1  0  0  0  0
 32 38  1  0  0  0  0
 33 34  2  0  0  0  0
 34 35  1  0  0  0  0
 34 36  1  0  0  0  0
 35 36  1  0  0  0  0
 35 37  1  0  0  0  0
 40 41  1  0  0  0  0
 41 42  1  0  0  0  0
 41 49  1  0  0  0  0
 42 43  1  0  0  0  0
 43 44  2  0  0  0  0
 43 45  1  0  0  0  0
 44 46  1  0  0  0  0
 45 47  1  0  0  0  0
 45 48  2  0  0  0  0
 47 49  1  0  0  0  0
 47 50  2  0  0  0  0
 49 51  2  0  0  0  0
 52 53  1  0  0  0  0
 52 54  1  0  0  0  0
 53 54  1  0  0  0  0
M  CHG  3  15   1  19   1  31   1
M  END