
 OpenBabel11252002043D

 52 61  0  0  1  0  0  0  0  0999 V2000
  -10.2340   14.6450   67.7070 C   0  0  0  0  0  0  0  0  0  0  0  0
  -10.5620   15.9410   67.9150 C   0  0  0  0  0  0  0  0  0  0  0  0
  -11.5420   16.2860   68.8540 O   0  0  0  0  0  0  0  0  0  0  0  0
  -12.0610   15.3310   69.7100 C   0  0  0  0  0  0  0  0  0  0  0  0
  -11.8090   14.0240   69.5510 C   0  0  0  0  0  0  0  0  0  0  0  0
  -10.9320   13.5240   68.4610 C   0  0  0  0  0  0  0  0  0  0  0  0
  -12.4340   13.0590   70.4660 C   0  0  0  0  0  0  0  0  0  0  0  0
  -12.2530   11.7510   70.1870 N   0  0  0  0  0  0  0  0  0  0  0  0
  -12.8400   10.8880   71.0290 C   0  0  0  0  0  0  0  0  0  0  0  0
  -13.5680   11.2160   72.1050 N   0  0  0  0  0  0  0  0  0  0  0  0
  -13.7160   12.5320   72.3430 C   0  0  0  0  0  0  0  0  0  0  0  0
  -13.1630   13.5150   71.5510 C   0  0  0  0  0  0  0  0  0  0  0  0
  -13.2990   14.9780   71.8540 C   0  0  0  0  0  0  0  0  0  0  0  0
  -12.8480   15.7950   70.7280 N   0  0  0  0  0  0  0  0  0  0  0  0
   -9.9050   17.1560   67.3370 C   0  0  0  0  0  0  0  0  0  0  0  0
  -10.7380   17.9610   66.5590 C   0  0  0  0  0  0  0  0  0  0  0  0
  -10.3000   19.0890   66.0010 N   0  0  0  0  0  0  0  0  0  0  0  0
  -11.1410   19.8070   65.2320 F   0  0  0  0  0  0  0  0  0  0  0  0
   -9.0770   19.5410   66.1810 N   0  0  0  0  0  0  0  0  0  0  0  0
   -8.2160   18.8340   66.9160 C   0  0  0  0  0  0  0  0  0  0  0  0
   -8.5620   17.5900   67.4850 C   0  0  0  0  0  0  0  0  0  0  0  0
   -6.9350   19.3520   67.1260 C   0  0  0  0  0  0  0  0  0  0  0  0
   -7.5360   16.8880   68.1640 C   0  0  0  0  0  0  0  0  0  0  0  0
   -6.2950   17.4760   68.4480 C   0  0  0  0  0  0  0  0  0  0  0  0
   -5.9890   18.7110   67.9200 C   0  0  0  0  0  0  0  0  0  0  0  0
   -5.3510   16.8300   69.3720 C   0  0  0  0  0  0  0  0  0  0  0  0
   -4.7700   19.3010   68.1060 O   0  0  0  0  0  0  0  0  0  0  0  0
   -4.1780   19.0390   69.4040 C   0  0  0  0  0  0  0  0  0  0  0  0
   -4.1690   17.6390   69.8670 C   0  0  0  0  0  0  0  0  0  0  0  0
   -3.0200   19.7840   69.6950 O   0  0  0  0  0  0  0  0  0  0  0  0
   -4.2230   20.1090   70.4550 C   0  0  0  0  0  0  0  0  0  0  0  0
   -3.3650   17.1820   70.6630 O   0  0  0  0  0  0  0  0  0  0  0  0
   -5.1240   21.1690   69.9180 O   0  0  0  0  0  0  0  0  0  0  0  0
   -4.1490   21.5150   70.7270 C   0  0  0  0  0  0  0  0  0  0  0  0
   -4.1290   22.1920   71.7290 O   0  0  0  0  0  0  0  0  0  0  0  0
   -5.5730   15.7060   69.8030 O   0  0  0  0  0  0  0  0  0  0  0  0
   -6.6220   20.5360   66.5750 F   0  0  0  0  0  0  0  0  0  0  0  0
   -9.1770   14.2760   66.8960 O   0  0  0  0  0  0  0  0  0  0  0  0
   -8.8590   12.8670   66.9170 C   0  0  0  0  0  0  0  0  0  0  0  0
   -9.1940   12.2400   65.6820 O   0  0  0  0  0  0  0  0  0  0  0  0
   -8.7930   10.9250   65.5270 C   0  0  0  0  0  0  0  0  0  0  0  0
   -9.3390   10.1690   64.5650 C   0  0  0  0  0  0  0  0  0  0  0  0
   -7.7130   10.3220   66.3670 C   0  0  0  0  0  0  0  0  0  0  0  0
  -10.3080   10.6370   63.7120 O   0  0  0  0  0  0  0  0  0  0  0  0
   -6.9420   11.3280   67.2050 C   0  0  0  0  0  0  0  0  0  0  0  0
   -7.4910    9.1250   66.4370 O   0  0  0  0  0  0  0  0  0  0  0  0
   -7.3720   12.7640   67.1590 C   0  0  0  0  0  0  0  0  0  0  0  0
   -6.0620   10.9930   67.9800 O   0  0  0  0  0  0  0  0  0  0  0  0
   -6.5840   13.6930   67.2730 O   0  0  0  0  0  0  0  0  0  0  0  0
  -12.4890   15.3280   73.0700 C   0  0  0  0  0  0  0  0  0  0  0  0
  -11.9300   16.6450   73.0640 O   0  0  0  0  0  0  0  0  0  0  0  0
  -13.0530   16.3270   73.9190 O   0  0  0  0  0  0  0  0  0  0  0  0
  1 38  1  0  0  0  0
  1  2  2  0  0  0  0
  1  6  1  0  0  0  0
  2  3  1  0  0  0  0
  2 15  1  0  0  0  0
  3  4  1  0  0  0  0
  4  5  2  0  0  0  0
  4 14  1  0  0  0  0
  5  6  1  0  0  0  0
  5  7  1  0  0  0  0
  7  8  2  0  0  0  0
  7 12  1  0  0  0  0
  8  9  1  0  0  0  0
  9 10  2  0  0  0  0
 10 11  1  0  0  0  0
 11 12  2  0  0  0  0
 12 13  1  0  0  0  0
 13 14  1  0  0  0  0
 13 50  1  0  0  0  0
 15 16  2  0  0  0  0
 15 21  1  0  0  0  0
 16 17  1  0  0  0  0
 17 18  1  0  0  0  0
 17 19  2  0  0  0  0
 19 20  1  0  0  0  0
 20 21  2  0  0  0  0
 20 22  1  0  0  0  0
 21 23  1  0  0  0  0
 22 25  2  0  0  0  0
 22 37  1  0  0  0  0
 23 24  2  0  0  0  0
 24 25  1  0  0  0  0
 24 26  1  0  0  0  0
 25 27  1  0  0  0  0
 26 29  1  0  0  0  0
 26 36  2  0  0  0  0
 27 28  1  0  0  0  0
 28 29  1  0  0  0  0
 28 30  1  0  0  0  0
 28 31  1  0  0  0  0
 29 32  2  0  0  0  0
 30 31  1  0  0  0  0
 31 33  1  0  0  0  0
 31 34  1  0  0  0  0
 33 34  1  0  0  0  0
 34 35  2  0  0  0  0
 38 39  1  0  0  0  0
 39 40  1  0  0  0  0
 39 47  1  0  0  0  0
 40 41  1  0  0  0  0
 41 42  2  0  0  0  0
 41 43  1  0  0  0  0
 42 44  1  0  0  0  0
 43 45  1  0  0  0  0
 43 46  2  0  0  0  0
 45 47  1  0  0  0  0
 45 48  2  0  0  0  0
 47 49  2  0  0  0  0
 50 51  1  0  0  0  0
 50 52  1  0  0  0  0
 51 52  1  0  0  0  0
M  CHG  1  17   1
M  END