
 OpenBabel11172005323D

 53 61  0  0  1  0  0  0  0  0999 V2000
  -11.1010   15.8640   67.1890 C   0  0  0  0  0  0  0  0  0  0  0  0
  -10.5000   16.8510   67.8880 C   0  0  0  0  0  0  0  0  0  0  0  0
  -10.6700   17.0320   69.2530 O   0  0  0  0  0  0  0  0  0  0  0  0
  -11.3920   16.0940   69.9720 C   0  0  0  0  0  0  0  0  0  0  0  0
  -11.9940   15.0450   69.3860 C   0  0  0  0  0  0  0  0  0  0  0  0
  -11.9670   14.8520   67.9020 C   0  0  0  0  0  0  0  0  0  0  0  0
  -12.7380   14.0260   70.2160 C   0  0  0  0  0  0  0  0  0  0  0  0
  -12.1160   12.7620   69.9860 O   0  0  0  0  0  0  0  0  0  0  0  0
  -12.3160   11.7080   70.8150 C   0  0  0  0  0  0  0  0  0  0  0  0
  -11.9100   10.5910   70.5230 O   0  0  0  0  0  0  0  0  0  0  0  0
  -12.9510   11.9400   71.9880 O   0  0  0  0  0  0  0  0  0  0  0  0
  -13.3960   13.2220   72.4140 C   0  0  0  0  0  0  0  0  0  0  0  0
  -12.7160   14.3040   71.6790 C   0  0  0  0  0  0  0  0  0  0  0  0
  -12.1130   15.4000   72.1940 C   0  0  0  0  0  0  0  0  0  0  0  0
  -11.4600   16.2640   71.3300 N   0  0  0  0  0  0  0  0  0  0  0  0
  -14.7890   13.3230   72.1860 O   0  0  0  0  0  0  0  0  0  0  0  0
   -9.5650   17.8100   67.2790 C   0  0  0  0  0  0  0  0  0  0  0  0
  -10.0680   18.7150   66.3560 C   0  0  0  0  0  0  0  0  0  0  0  0
   -9.3090   19.6510   65.7640 N   0  0  0  0  0  0  0  0  0  0  0  0
   -7.9930   19.7500   66.1040 N   0  0  0  0  0  0  0  0  0  0  0  0
   -7.4330   18.9110   66.9950 C   0  0  0  0  0  0  0  0  0  0  0  0
   -8.1900   17.8810   67.5950 C   0  0  0  0  0  0  0  0  0  0  0  0
   -6.0710   19.0620   67.3260 C   0  0  0  0  0  0  0  0  0  0  0  0
   -7.5440   16.9800   68.4740 C   0  0  0  0  0  0  0  0  0  0  0  0
   -6.1980   17.1520   68.8030 C   0  0  0  0  0  0  0  0  0  0  0  0
   -5.5250   16.2130   69.7140 C   0  0  0  0  0  0  0  0  0  0  0  0
   -5.4830   18.2280   68.2910 C   0  0  0  0  0  0  0  0  0  0  0  0
   -6.0410   15.1660   70.0700 O   0  0  0  0  0  0  0  0  0  0  0  0
   -4.1380   16.6050   70.1740 C   0  0  0  0  0  0  0  0  0  0  0  0
   -3.3790   15.7910   70.6830 O   0  0  0  0  0  0  0  0  0  0  0  0
   -3.8170   18.0630   69.9740 C   0  0  0  0  0  0  0  0  0  0  0  0
   -4.1980   18.5350   68.6750 O   0  0  0  0  0  0  0  0  0  0  0  0
   -5.3500   20.1990   66.8650 N   0  0  0  0  0  0  0  0  0  0  0  0
   -4.4000   18.9090   71.0640 C   0  0  0  0  0  0  0  0  0  0  0  0
   -5.2460   18.2440   72.0360 O   0  0  0  0  0  0  0  0  0  0  0  0
   -3.4960   19.8780   71.5980 O   0  0  0  0  0  0  0  0  0  0  0  0
   -4.5910   20.3580   70.9700 C   0  0  0  0  0  0  0  0  0  0  0  0
   -5.4800   21.0490   71.4050 O   0  0  0  0  0  0  0  0  0  0  0  0
  -10.8610   15.7030   65.8300 O   0  0  0  0  0  0  0  0  0  0  0  0
  -10.5390   14.3780   65.3840 C   0  0  0  0  0  0  0  0  0  0  0  0
   -9.9980   13.5930   66.4450 O   0  0  0  0  0  0  0  0  0  0  0  0
   -9.7400   12.2610   66.1690 C   0  0  0  0  0  0  0  0  0  0  0  0
   -8.8630   11.5770   66.9150 C   0  0  0  0  0  0  0  0  0  0  0  0
  -10.4590   11.5130   65.0970 C   0  0  0  0  0  0  0  0  0  0  0  0
   -8.1580   12.1560   67.9360 O   0  0  0  0  0  0  0  0  0  0  0  0
  -11.5020   12.3260   64.3620 C   0  0  0  0  0  0  0  0  0  0  0  0
  -10.2380   10.3480   64.8090 O   0  0  0  0  0  0  0  0  0  0  0  0
  -11.7930   13.7160   64.8500 C   0  0  0  0  0  0  0  0  0  0  0  0
  -12.0430   11.9000   63.3560 O   0  0  0  0  0  0  0  0  0  0  0  0
  -12.9190   14.1820   64.7900 O   0  0  0  0  0  0  0  0  0  0  0  0
  -12.0870   15.7550   73.6300 C   0  0  0  0  0  0  0  0  0  0  0  0
  -11.8300   17.0970   74.0790 O   0  0  0  0  0  0  0  0  0  0  0  0
  -13.1400   16.5190   74.2370 O   0  0  0  0  0  0  0  0  0  0  0  0
  1 39  1  0  0  0  0
  1  2  2  0  0  0  0
  1  6  1  0  0  0  0
  2  3  1  0  0  0  0
  2 17  1  0  0  0  0
  3  4  1  0  0  0  0
  4  5  2  0  0  0  0
  4 15  1  0  0  0  0
  5  6  1  0  0  0  0
  5  7  1  0  0  0  0
  7  8  1  0  0  0  0
  7 13  1  0  0  0  0
  8  9  1  0  0  0  0
  9 10  2  0  0  0  0
  9 11  1  0  0  0  0
 11 12  1  0  0  0  0
 12 13  1  0  0  0  0
 12 16  1  0  0  0  0
 13 14  2  0  0  0  0
 14 15  1  0  0  0  0
 14 51  1  0  0  0  0
 17 18  2  0  0  0  0
 17 22  1  0  0  0  0
 18 19  1  0  0  0  0
 19 20  2  0  0  0  0
 20 21  1  0  0  0  0
 21 22  2  0  0  0  0
 21 23  1  0  0  0  0
 22 24  1  0  0  0  0
 23 27  2  0  0  0  0
 23 33  1  0  0  0  0
 24 25  2  0  0  0  0
 25 26  1  0  0  0  0
 25 27  1  0  0  0  0
 26 28  2  0  0  0  0
 26 29  1  0  0  0  0
 27 32  1  0  0  0  0
 29 30  2  0  0  0  0
 29 31  1  0  0  0  0
 31 32  1  0  0  0  0
 31 34  1  0  0  0  0
 34 35  1  0  0  0  0
 34 36  1  0  0  0  0
 34 37  1  0  0  0  0
 36 37  1  0  0  0  0
 37 38  2  0  0  0  0
 39 40  1  0  0  0  0
 40 41  1  0  0  0  0
 40 48  1  0  0  0  0
 41 42  1  0  0  0  0
 42 43  2  0  0  0  0
 42 44  1  0  0  0  0
 43 45  1  0  0  0  0
 44 46  1  0  0  0  0
 44 47  2  0  0  0  0
 46 48  1  0  0  0  0
 46 49  2  0  0  0  0
 48 50  2  0  0  0  0
 51 52  1  0  0  0  0
 51 53  1  0  0  0  0
 52 53  1  0  0  0  0
M  END
