
 OpenBabel10232012573D

 86100  0  0  1  0  0  0  0  0999 V2000
   -1.2540   19.5080   55.0770 O   0  0  0  0  0  0  0  0  0  0  0  0
   -1.2680   18.2300   55.7490 C   0  0  0  0  0  0  0  0  0  0  0  0
   -2.6400   17.5360   55.6190 C   0  0  0  0  0  0  0  0  0  0  0  0
   -3.6560   18.3520   56.2510 O   0  0  0  0  0  0  0  0  0  0  0  0
   -3.4110   18.8010   57.5160 C   0  0  0  0  0  0  0  0  0  0  0  0
   -2.1420   18.8050   58.0760 C   0  0  0  0  0  0  0  0  0  0  0  0
   -0.9370   18.4990   57.2300 C   0  0  0  0  0  0  0  0  0  0  0  0
   -0.0270   19.6120   57.3550 O   0  0  0  0  0  0  0  0  0  0  0  0
   -2.0360   19.0620   59.4500 C   0  0  0  0  0  0  0  0  0  0  0  0
   -3.1430   19.3490   60.2950 C   0  0  0  0  0  0  0  0  0  0  0  0
   -4.4060   19.5400   59.6670 C   0  0  0  0  0  0  0  0  0  0  0  0
   -4.4950   19.2290   58.2850 C   0  0  0  0  0  0  0  0  0  0  0  0
   -5.7030   19.2470   57.6850 F   0  0  0  0  0  0  0  0  0  0  0  0
   -5.4580   19.9940   60.4870 C   0  0  0  0  0  0  0  0  0  0  0  0
   -7.0560   20.2720   59.8820 Cl  0  0  0  0  0  0  0  0  0  0  0  0
   -5.2950   20.2560   61.8670 C   0  0  0  0  0  0  0  0  0  0  0  0
   -4.1180   19.9390   62.5660 C   0  0  0  0  0  0  0  0  0  0  0  0
   -3.0740   19.4410   61.7290 C   0  0  0  0  0  0  0  0  0  0  0  0
   -1.6550   18.7100   62.4760 Cl  0  0  0  0  0  0  0  0  0  0  0  0
   -2.6970   16.0260   56.0780 C   0  0  0  0  0  0  0  0  0  0  0  0
   -3.9460   15.3360   55.4790 C   0  0  0  0  0  0  0  0  0  0  0  0
   -4.1370   13.9010   55.9720 C   0  0  0  0  0  0  0  0  0  0  0  0
   -4.1340   13.8010   57.4670 C   0  0  0  0  0  0  0  0  0  0  0  0
   -3.4090   14.7010   58.2280 C   0  0  0  0  0  0  0  0  0  0  0  0
   -4.8010   12.7520   58.1230 C   0  0  0  0  0  0  0  0  0  0  0  0
   -2.6990   15.9110   57.6380 C   0  0  0  0  0  0  0  0  0  0  0  0
   -3.2900   14.4890   59.6210 C   0  0  0  0  0  0  0  0  0  0  0  0
   -1.2720   15.9150   58.2370 C   0  0  0  0  0  0  0  0  0  0  0  0
   -0.5370   14.9060   57.6680 F   0  0  0  0  0  0  0  0  0  0  0  0
   -1.2020   15.7850   59.7650 C   0  0  0  0  0  0  0  0  0  0  0  0
   -2.5890   15.5940   60.3860 C   0  0  0  0  0  0  0  0  0  0  0  0
   -2.5610   15.3760   61.8930 C   0  0  0  0  0  0  0  0  0  0  0  0
   -2.1800   13.9430   62.2010 C   0  0  0  0  0  0  0  0  0  0  0  0
   -3.2320   12.9700   61.6410 C   0  0  0  0  0  0  0  0  0  0  0  0
   -3.7690   13.3080   60.2450 C   0  0  0  0  0  0  0  0  0  0  0  0
   -2.4530   11.3470   61.6210 Cl  0  0  0  0  0  0  0  0  0  0  0  0
   -4.6660   12.4720   59.5140 C   0  0  0  0  0  0  0  0  0  0  0  0
   -5.4480   11.3240   60.0990 C   0  0  0  0  0  0  0  0  0  0  0  0
   -6.2380   11.4800   61.2590 C   0  0  0  0  0  0  0  0  0  0  0  0
   -6.9140   10.3990   61.8740 C   0  0  0  0  0  0  0  0  0  0  0  0
   -7.3310   10.5110   63.3340 C   0  0  0  0  0  0  0  0  0  0  0  0
   -6.9970    9.1740   61.2080 C   0  0  0  0  0  0  0  0  0  0  0  0
   -6.0420   10.4130   64.1860 C   0  0  0  0  0  0  0  0  0  0  0  0
   -8.3670    9.4520   63.7970 C   0  0  0  0  0  0  0  0  0  0  0  0
   -6.3150   10.4910   65.5810 O   0  0  0  0  0  0  0  0  0  0  0  0
   -7.1110    9.3900   66.0150 C   0  0  0  0  0  0  0  0  0  0  0  0
   -8.4840    9.4570   65.3460 C   0  0  0  0  0  0  0  0  0  0  0  0
   -9.4050    8.3720   65.9010 C   0  0  0  0  0  0  0  0  0  0  0  0
   -8.0350    8.0640   63.2130 C   0  0  0  0  0  0  0  0  0  0  0  0
   -7.9280    8.0830   61.6830 C   0  0  0  0  0  0  0  0  0  0  0  0
   -9.3000    8.2640   61.0180 C   0  0  0  0  0  0  0  0  0  0  0  0
   -6.2000    8.9800   60.0820 C   0  0  0  0  0  0  0  0  0  0  0  0
   -5.3800   10.0090   59.6090 C   0  0  0  0  0  0  0  0  0  0  0  0
   -4.4670    9.6650   58.6910 F   0  0  0  0  0  0  0  0  0  0  0  0
   -4.0320   20.1180   64.0850 C   0  0  0  0  0  0  0  0  0  0  0  0
   -4.5440   19.1100   64.9480 C   0  0  0  0  0  0  0  0  0  0  0  0
   -4.8650   19.2480   66.3950 C   0  0  0  0  0  0  0  0  0  0  0  0
   -5.7860   18.5250   67.4980 C   0  0  0  0  0  0  0  0  0  0  0  0
   -4.1200   20.3540   66.8930 N   0  0  0  0  0  0  0  0  0  0  0  0
   -5.8550   19.1110   68.7760 C   0  0  0  0  0  0  0  0  0  0  0  0
   -6.9590   18.9610   69.6520 N   0  0  0  0  0  0  0  0  0  0  0  0
   -4.9290   20.1000   69.0670 C   0  0  0  0  0  0  0  0  0  0  0  0
   -4.0890   20.6360   68.1880 N   0  0  0  0  0  0  0  0  0  0  0  0
   -3.3790   21.2200   66.0910 N   0  0  0  0  0  0  0  0  0  0  0  0
   -3.4840   21.2420   64.7330 C   0  0  0  0  0  0  0  0  0  0  0  0
   -2.2840   22.3100   66.8760 Cl  0  0  0  0  0  0  0  0  0  0  0  0
   -3.0000   22.4720   63.9940 C   0  0  0  0  0  0  0  0  0  0  0  0
   -6.8010   17.1960   67.3110 N   0  0  0  0  0  0  0  0  0  0  0  0
   -6.5340   15.8780   67.8430 N   0  0  0  0  0  0  0  0  0  0  0  0
   -4.9350   15.1900   67.8240 Cl  0  0  0  0  0  0  0  0  0  0  0  0
   -7.5190   14.8830   67.9180 C   0  0  0  0  0  0  0  0  0  0  0  0
   -8.7350   14.9080   67.1880 C   0  0  0  0  0  0  0  0  0  0  0  0
   -8.9100   16.0760   66.4700 C   0  0  0  0  0  0  0  0  0  0  0  0
   -9.7310   13.8750   67.0560 N   0  0  0  0  0  0  0  0  0  0  0  0
   -7.9950   17.2280   66.6020 C   0  0  0  0  0  0  0  0  0  0  0  0
   -9.9430   16.1090   65.6230 N   0  0  0  0  0  0  0  0  0  0  0  0
   -8.3870   18.3940   65.9680 N   0  0  0  0  0  0  0  0  0  0  0  0
  -10.8180   15.1080   65.3820 N   0  0  0  0  0  0  0  0  0  0  0  0
  -10.8010   13.9450   66.1190 C   0  0  0  0  0  0  0  0  0  0  0  0
  -11.8760   15.4440   64.0780 Cl  0  0  0  0  0  0  0  0  0  0  0  0
  -11.6680   12.8710   66.0520 N   0  0  0  0  0  0  0  0  0  0  0  0
  -11.5570   11.8100   66.8800 C   0  0  0  0  0  0  0  0  0  0  0  0
  -12.9840   12.7510   64.9550 Cl  0  0  0  0  0  0  0  0  0  0  0  0
  -10.5790   11.7660   67.7960 N   0  0  0  0  0  0  0  0  0  0  0  0
   -9.6620   12.7680   67.8660 N   0  0  0  0  0  0  0  0  0  0  0  0
  -10.5100   10.5990   68.7460 C   0  0  0  0  0  0  0  0  0  0  0  0
  1  2  1  0  0  0  0
  2  3  1  0  0  0  0
  2  7  1  0  0  0  0
  3  4  1  0  0  0  0
  3 20  1  0  0  0  0
  4  5  1  0  0  0  0
  5  6  2  0  0  0  0
  5 12  1  0  0  0  0
  6  7  1  0  0  0  0
  6  9  1  0  0  0  0
  7  8  1  0  0  0  0
  9 10  2  0  0  0  0
 10 11  1  0  0  0  0
 10 18  1  0  0  0  0
 11 12  2  0  0  0  0
 11 14  1  0  0  0  0
 12 13  1  0  0  0  0
 14 15  1  0  0  0  0
 14 16  2  0  0  0  0
 16 17  1  0  0  0  0
 17 18  2  0  0  0  0
 17 55  1  0  0  0  0
 18 19  1  0  0  0  0
 20 21  1  0  0  0  0
 20 26  1  0  0  0  0
 21 22  1  0  0  0  0
 22 23  1  0  0  0  0
 23 24  2  0  0  0  0
 23 25  1  0  0  0  0
 24 26  1  0  0  0  0
 24 27  1  0  0  0  0
 25 37  2  0  0  0  0
 26 28  1  0  0  0  0
 27 31  1  0  0  0  0
 27 35  2  0  0  0  0
 28 29  1  0  0  0  0
 28 30  1  0  0  0  0
 30 31  1  0  0  0  0
 31 32  1  0  0  0  0
 32 33  1  0  0  0  0
 33 34  1  0  0  0  0
 34 35  1  0  0  0  0
 34 36  1  0  0  0  0
 35 37  1  0  0  0  0
 37 38  1  0  0  0  0
 38 39  2  0  0  0  0
 38 53  1  0  0  0  0
 39 40  1  0  0  0  0
 40 41  1  0  0  0  0
 40 42  2  0  0  0  0
 41 43  1  0  0  0  0
 41 44  1  0  0  0  0
 42 50  1  0  0  0  0
 42 52  1  0  0  0  0
 43 45  1  0  0  0  0
 44 47  1  0  0  0  0
 44 49  1  0  0  0  0
 45 46  1  0  0  0  0
 46 47  1  0  0  0  0
 47 48  1  0  0  0  0
 49 50  1  0  0  0  0
 50 51  1  0  0  0  0
 52 53  2  0  0  0  0
 53 54  1  0  0  0  0
 55 56  2  0  0  0  0
 55 65  1  0  0  0  0
 56 57  1  0  0  0  0
 57 58  2  0  0  0  0
 57 59  1  0  0  0  0
 58 60  1  0  0  0  0
 58 68  1  0  0  0  0
 59 63  2  0  0  0  0
 59 64  1  0  0  0  0
 60 61  1  0  0  0  0
 60 62  2  0  0  0  0
 62 63  1  0  0  0  0
 64 65  2  0  0  0  0
 64 66  1  0  0  0  0
 65 67  1  0  0  0  0
 68 69  2  0  0  0  0
 68 75  1  0  0  0  0
 69 70  1  0  0  0  0
 69 71  1  0  0  0  0
 71 72  2  0  0  0  0
 72 73  1  0  0  0  0
 72 74  1  0  0  0  0
 73 75  2  0  0  0  0
 73 76  1  0  0  0  0
 74 79  2  0  0  0  0
 74 85  1  0  0  0  0
 75 77  1  0  0  0  0
 76 78  2  0  0  0  0
 78 79  1  0  0  0  0
 78 80  1  0  0  0  0
 79 81  1  0  0  0  0
 81 82  2  0  0  0  0
 81 83  1  0  0  0  0
 82 84  1  0  0  0  0
 84 85  2  0  0  0  0
 84 86  1  0  0  0  0
M  CHG  8  59   1  64   1  68   1  69   1  78   1  74   1  84   1  81   1
M  END