
 OpenBabel11262000113D

 54 62  0  0  1  0  0  0  0  0999 V2000
  -10.9050   15.7290   67.0640 C   0  0  0  0  0  0  0  0  0  0  0  0
  -10.6240   16.8460   67.7680 C   0  0  0  0  0  0  0  0  0  0  0  0
  -10.9770   17.0110   69.1170 O   0  0  0  0  0  0  0  0  0  0  0  0
  -11.6140   15.9540   69.8080 C   0  0  0  0  0  0  0  0  0  0  0  0
  -11.9230   14.8050   69.1710 C   0  0  0  0  0  0  0  0  0  0  0  0
  -11.6380   14.5820   67.7150 C   0  0  0  0  0  0  0  0  0  0  0  0
  -12.5920   13.6420   69.8760 C   0  0  0  0  0  0  0  0  0  0  0  0
  -11.7420   12.5160   69.7650 O   0  0  0  0  0  0  0  0  0  0  0  0
  -12.1090   11.4190   70.4680 C   0  0  0  0  0  0  0  0  0  0  0  0
  -11.5970   10.2880   70.1750 N   0  0  0  0  0  0  0  0  0  0  0  0
  -13.0000   11.5460   71.4720 O   0  0  0  0  0  0  0  0  0  0  0  0
  -13.2940   12.7440   72.0060 C   0  0  0  0  0  0  0  0  0  0  0  0
  -14.0070   12.9010   72.9850 O   0  0  0  0  0  0  0  0  0  0  0  0
  -12.7600   13.9120   71.3080 C   0  0  0  0  0  0  0  0  0  0  0  0
  -12.4520   15.0820   71.9060 C   0  0  0  0  0  0  0  0  0  0  0  0
  -11.9130   16.1220   71.1530 O   0  0  0  0  0  0  0  0  0  0  0  0
   -9.9090   17.9800   67.1150 C   0  0  0  0  0  0  0  0  0  0  0  0
  -10.6040   18.7780   66.1960 C   0  0  0  0  0  0  0  0  0  0  0  0
  -10.0160   19.8580   65.6710 N   0  0  0  0  0  0  0  0  0  0  0  0
  -10.6910   20.6150   64.7810 F   0  0  0  0  0  0  0  0  0  0  0  0
   -8.7910   20.2160   66.0000 N   0  0  0  0  0  0  0  0  0  0  0  0
   -8.1040   19.4790   66.8930 C   0  0  0  0  0  0  0  0  0  0  0  0
   -8.6290   18.3310   67.4700 N   0  0  0  0  0  0  0  0  0  0  0  0
   -6.8120   19.8780   67.2540 C   0  0  0  0  0  0  0  0  0  0  0  0
   -7.8690   17.6230   68.3560 C   0  0  0  0  0  0  0  0  0  0  0  0
   -6.5880   18.0320   68.7120 C   0  0  0  0  0  0  0  0  0  0  0  0
   -5.8250   17.2520   69.6760 C   0  0  0  0  0  0  0  0  0  0  0  0
   -6.0500   19.1800   68.1810 C   0  0  0  0  0  0  0  0  0  0  0  0
   -6.2940   16.2130   70.1030 O   0  0  0  0  0  0  0  0  0  0  0  0
   -4.4430   17.7690   70.0000 C   0  0  0  0  0  0  0  0  0  0  0  0
   -3.5430   16.9810   70.2280 O   0  0  0  0  0  0  0  0  0  0  0  0
   -4.3070   19.2700   69.8400 C   0  0  0  0  0  0  0  0  0  0  0  0
   -4.8490   19.7030   68.5620 O   0  0  0  0  0  0  0  0  0  0  0  0
   -6.3150   20.9980   66.7100 F   0  0  0  0  0  0  0  0  0  0  0  0
   -4.8810   20.0290   71.0150 C   0  0  0  0  0  0  0  0  0  0  0  0
   -6.2700   20.3740   70.9190 O   0  0  0  0  0  0  0  0  0  0  0  0
   -4.4360   19.6100   72.3090 O   0  0  0  0  0  0  0  0  0  0  0  0
   -4.0890   20.8520   71.9300 C   0  0  0  0  0  0  0  0  0  0  0  0
   -2.9950   21.3680   71.8120 O   0  0  0  0  0  0  0  0  0  0  0  0
  -10.4860   15.6180   65.7380 O   0  0  0  0  0  0  0  0  0  0  0  0
  -10.2020   14.2940   65.1750 C   0  0  0  0  0  0  0  0  0  0  0  0
   -9.6330   13.4350   66.1350 O   0  0  0  0  0  0  0  0  0  0  0  0
   -9.4710   12.1100   65.7730 C   0  0  0  0  0  0  0  0  0  0  0  0
   -8.5110   11.3790   66.3520 C   0  0  0  0  0  0  0  0  0  0  0  0
  -10.3820   11.4200   64.8120 C   0  0  0  0  0  0  0  0  0  0  0  0
   -7.6450   11.9040   67.2760 O   0  0  0  0  0  0  0  0  0  0  0  0
  -11.3560   12.3310   64.0930 C   0  0  0  0  0  0  0  0  0  0  0  0
  -10.3930   10.2170   64.6320 O   0  0  0  0  0  0  0  0  0  0  0  0
  -11.4530   13.7740   64.4960 C   0  0  0  0  0  0  0  0  0  0  0  0
  -12.0670   11.9370   63.1860 O   0  0  0  0  0  0  0  0  0  0  0  0
  -12.4560   14.4530   64.3060 O   0  0  0  0  0  0  0  0  0  0  0  0
  -12.5610   15.3500   73.3620 C   0  0  0  0  0  0  0  0  0  0  0  0
  -12.1680   16.6220   73.8950 O   0  0  0  0  0  0  0  0  0  0  0  0
  -13.5640   16.2730   73.8360 O   0  0  0  0  0  0  0  0  0  0  0  0
  1 40  1  0  0  0  0
  1  2  2  0  0  0  0
  1  6  1  0  0  0  0
  2  3  1  0  0  0  0
  2 17  1  0  0  0  0
  3  4  1  0  0  0  0
  4  5  2  0  0  0  0
  4 16  1  0  0  0  0
  5  6  1  0  0  0  0
  5  7  1  0  0  0  0
  7  8  1  0  0  0  0
  7 14  1  0  0  0  0
  8  9  1  0  0  0  0
  9 10  2  0  0  0  0
  9 11  1  0  0  0  0
 11 12  1  0  0  0  0
 12 13  2  0  0  0  0
 12 14  1  0  0  0  0
 14 15  2  0  0  0  0
 15 16  1  0  0  0  0
 15 52  1  0  0  0  0
 17 18  2  0  0  0  0
 17 23  1  0  0  0  0
 18 19  1  0  0  0  0
 19 20  1  0  0  0  0
 19 21  2  0  0  0  0
 21 22  1  0  0  0  0
 22 23  2  0  0  0  0
 22 24  1  0  0  0  0
 23 25  1  0  0  0  0
 24 28  2  0  0  0  0
 24 34  1  0  0  0  0
 25 26  2  0  0  0  0
 26 27  1  0  0  0  0
 26 28  1  0  0  0  0
 27 29  2  0  0  0  0
 27 30  1  0  0  0  0
 28 33  1  0  0  0  0
 30 31  2  0  0  0  0
 30 32  1  0  0  0  0
 32 33  1  0  0  0  0
 32 35  1  0  0  0  0
 35 36  1  0  0  0  0
 35 37  1  0  0  0  0
 35 38  1  0  0  0  0
 37 38  1  0  0  0  0
 38 39  2  0  0  0  0
 40 41  1  0  0  0  0
 41 42  1  0  0  0  0
 41 49  1  0  0  0  0
 42 43  1  0  0  0  0
 43 44  2  0  0  0  0
 43 45  1  0  0  0  0
 44 46  1  0  0  0  0
 45 47  1  0  0  0  0
 45 48  2  0  0  0  0
 47 49  1  0  0  0  0
 47 50  2  0  0  0  0
 49 51  2  0  0  0  0
 52 53  1  0  0  0  0
 52 54  1  0  0  0  0
 53 54  1  0  0  0  0
M  CHG  3  16   1  19   1  23   1
M  END