
 OpenBabel11222017523D

 55 63  0  0  1  0  0  0  0  0999 V2000
   -2.9510   19.0360   70.1670 C   0  0  0  0  0  0  0  0  0  0  0  0
   -3.9420   19.7320   70.9620 N   0  0  0  0  0  0  0  0  0  0  0  0
   -4.6610   20.2460   71.6020 N   0  0  0  0  0  0  0  0  0  0  0  0
   -1.6360   18.8350   70.7010 O   0  0  0  0  0  0  0  0  0  0  0  0
   -1.8140   19.8780   69.8720 C   0  0  0  0  0  0  0  0  0  0  0  0
   -1.3510   20.1330   68.7820 O   0  0  0  0  0  0  0  0  0  0  0  0
   -3.4300   18.1000   69.0770 C   0  0  0  0  0  0  0  0  0  0  0  0
   -4.0210   16.9080   69.7880 C   0  0  0  0  0  0  0  0  0  0  0  0
   -5.3370   16.3900   69.2680 C   0  0  0  0  0  0  0  0  0  0  0  0
   -3.5010   16.5060   70.8200 O   0  0  0  0  0  0  0  0  0  0  0  0
   -6.1450   17.3310   68.4950 C   0  0  0  0  0  0  0  0  0  0  0  0
   -5.7100   15.2570   69.5040 O   0  0  0  0  0  0  0  0  0  0  0  0
   -7.5200   17.0970   68.3140 C   0  0  0  0  0  0  0  0  0  0  0  0
   -5.5370   18.4420   67.9450 C   0  0  0  0  0  0  0  0  0  0  0  0
   -8.3240   17.9830   67.5540 C   0  0  0  0  0  0  0  0  0  0  0  0
   -9.7220   17.8550   67.3740 C   0  0  0  0  0  0  0  0  0  0  0  0
   -7.6940   19.0790   66.9320 C   0  0  0  0  0  0  0  0  0  0  0  0
  -10.3610   18.7910   66.5610 C   0  0  0  0  0  0  0  0  0  0  0  0
   -9.6670   19.7670   65.9660 N   0  0  0  0  0  0  0  0  0  0  0  0
  -10.3060   20.6250   65.1450 F   0  0  0  0  0  0  0  0  0  0  0  0
   -8.3680   19.9270   66.1480 N   0  0  0  0  0  0  0  0  0  0  0  0
   -6.3250   19.2820   67.1500 C   0  0  0  0  0  0  0  0  0  0  0  0
   -5.7380   20.3460   66.5760 F   0  0  0  0  0  0  0  0  0  0  0  0
   -4.2220   18.7810   68.1040 O   0  0  0  0  0  0  0  0  0  0  0  0
  -10.5650   16.8190   68.0220 C   0  0  0  0  0  0  0  0  0  0  0  0
  -11.1250   15.7980   67.3350 C   0  0  0  0  0  0  0  0  0  0  0  0
  -11.8630   14.7070   68.0710 C   0  0  0  0  0  0  0  0  0  0  0  0
  -11.9410   14.9230   69.5440 C   0  0  0  0  0  0  0  0  0  0  0  0
  -11.3910   15.9900   70.1470 C   0  0  0  0  0  0  0  0  0  0  0  0
  -12.6990   13.8640   70.2980 C   0  0  0  0  0  0  0  0  0  0  0  0
  -10.6760   16.9490   69.4140 O   0  0  0  0  0  0  0  0  0  0  0  0
  -11.5080   16.1660   71.5100 O   0  0  0  0  0  0  0  0  0  0  0  0
  -12.1990   15.2530   72.2970 C   0  0  0  0  0  0  0  0  0  0  0  0
  -12.7630   14.1580   71.7420 C   0  0  0  0  0  0  0  0  0  0  0  0
  -13.5210   13.0780   72.4250 C   0  0  0  0  0  0  0  0  0  0  0  0
  -13.3740   11.8110   71.7910 O   0  0  0  0  0  0  0  0  0  0  0  0
  -14.8720   13.4830   72.3260 O   0  0  0  0  0  0  0  0  0  0  0  0
  -12.4650   11.5630   70.8190 C   0  0  0  0  0  0  0  0  0  0  0  0
  -11.9730   12.6560   70.1730 O   0  0  0  0  0  0  0  0  0  0  0  0
  -12.0970   10.4370   70.5290 O   0  0  0  0  0  0  0  0  0  0  0  0
  -10.9940   15.6890   65.9520 O   0  0  0  0  0  0  0  0  0  0  0  0
  -10.6560   14.3830   65.3980 C   0  0  0  0  0  0  0  0  0  0  0  0
   -9.9880   13.5620   66.3400 O   0  0  0  0  0  0  0  0  0  0  0  0
   -9.7330   12.2480   65.9920 C   0  0  0  0  0  0  0  0  0  0  0  0
   -8.7870   11.5670   66.6490 C   0  0  0  0  0  0  0  0  0  0  0  0
  -10.5090   11.5240   64.9420 C   0  0  0  0  0  0  0  0  0  0  0  0
   -8.0500   12.1290   67.6600 O   0  0  0  0  0  0  0  0  0  0  0  0
  -11.5990   12.3420   64.2820 C   0  0  0  0  0  0  0  0  0  0  0  0
  -10.3200   10.3610   64.6310 O   0  0  0  0  0  0  0  0  0  0  0  0
  -11.8840   13.7240   64.7910 C   0  0  0  0  0  0  0  0  0  0  0  0
  -12.2340   11.9310   63.3270 O   0  0  0  0  0  0  0  0  0  0  0  0
  -13.0000   14.2240   64.7210 O   0  0  0  0  0  0  0  0  0  0  0  0
  -12.2500   15.5600   73.7440 C   0  0  0  0  0  0  0  0  0  0  0  0
  -12.2400   16.9140   74.2110 O   0  0  0  0  0  0  0  0  0  0  0  0
  -13.4400   16.1250   74.3200 O   0  0  0  0  0  0  0  0  0  0  0  0
  1  7  1  0  0  0  0
  1  2  1  0  0  0  0
  1  4  1  0  0  0  0
  1  5  1  0  0  0  0
  2  3  3  0  0  0  0
  4  5  1  0  0  0  0
  5  6  2  0  0  0  0
  7  8  1  0  0  0  0
  7 24  1  0  0  0  0
  8  9  1  0  0  0  0
  8 10  2  0  0  0  0
  9 11  1  0  0  0  0
  9 12  2  0  0  0  0
 11 13  2  0  0  0  0
 11 14  1  0  0  0  0
 13 15  1  0  0  0  0
 14 24  1  0  0  0  0
 14 22  2  0  0  0  0
 15 16  1  0  0  0  0
 15 17  2  0  0  0  0
 16 25  1  0  0  0  0
 16 18  2  0  0  0  0
 17 21  1  0  0  0  0
 17 22  1  0  0  0  0
 18 19  1  0  0  0  0
 19 20  1  0  0  0  0
 19 21  2  0  0  0  0
 22 23  1  0  0  0  0
 25 26  2  0  0  0  0
 25 31  1  0  0  0  0
 26 41  1  0  0  0  0
 26 27  1  0  0  0  0
 27 28  1  0  0  0  0
 28 29  2  0  0  0  0
 28 30  1  0  0  0  0
 29 31  1  0  0  0  0
 29 32  1  0  0  0  0
 30 39  1  0  0  0  0
 30 34  1  0  0  0  0
 32 33  1  0  0  0  0
 33 34  2  0  0  0  0
 33 53  1  0  0  0  0
 34 35  1  0  0  0  0
 35 36  1  0  0  0  0
 35 37  1  0  0  0  0
 36 38  1  0  0  0  0
 38 39  1  0  0  0  0
 38 40  2  0  0  0  0
 41 42  1  0  0  0  0
 42 43  1  0  0  0  0
 42 50  1  0  0  0  0
 43 44  1  0  0  0  0
 44 45  2  0  0  0  0
 44 46  1  0  0  0  0
 45 47  1  0  0  0  0
 46 48  1  0  0  0  0
 46 49  2  0  0  0  0
 48 50  1  0  0  0  0
 48 51  2  0  0  0  0
 50 52  2  0  0  0  0
 53 54  1  0  0  0  0
 53 55  1  0  0  0  0
 54 55  1  0  0  0  0
M  CHG  3  32   1  19   1   2   1
M  END