
 OpenBabel11222020163D

 54 62  0  0  1  0  0  0  0  0999 V2000
  -11.0370   15.7640   67.1040 C   0  0  0  0  0  0  0  0  0  0  0  0
  -10.5740   16.8490   67.7910 C   0  0  0  0  0  0  0  0  0  0  0  0
  -10.7830   16.9660   69.1720 O   0  0  0  0  0  0  0  0  0  0  0  0
  -11.4400   15.9840   69.9040 C   0  0  0  0  0  0  0  0  0  0  0  0
  -11.9620   14.8990   69.3070 C   0  0  0  0  0  0  0  0  0  0  0  0
  -11.8820   14.7120   67.8140 C   0  0  0  0  0  0  0  0  0  0  0  0
  -12.6570   13.8160   70.1070 C   0  0  0  0  0  0  0  0  0  0  0  0
  -11.9270   12.6080   69.9200 O   0  0  0  0  0  0  0  0  0  0  0  0
  -12.3310   11.5400   70.6410 C   0  0  0  0  0  0  0  0  0  0  0  0
  -11.9250   10.3670   70.3420 N   0  0  0  0  0  0  0  0  0  0  0  0
  -13.1640   11.7390   71.6760 O   0  0  0  0  0  0  0  0  0  0  0  0
  -13.2860   12.9980   72.3230 C   0  0  0  0  0  0  0  0  0  0  0  0
  -12.6370   14.1030   71.5660 C   0  0  0  0  0  0  0  0  0  0  0  0
  -12.0950   15.2210   72.0940 C   0  0  0  0  0  0  0  0  0  0  0  0
  -11.5210   16.1700   71.2670 O   0  0  0  0  0  0  0  0  0  0  0  0
  -14.6520   13.3590   72.3860 O   0  0  0  0  0  0  0  0  0  0  0  0
   -9.8030   18.0290   67.2140 C   0  0  0  0  0  0  0  0  0  0  0  0
  -10.4420   18.8870   66.3170 C   0  0  0  0  0  0  0  0  0  0  0  0
   -9.8220   19.9570   65.8060 N   0  0  0  0  0  0  0  0  0  0  0  0
  -10.4820   20.7370   64.9280 F   0  0  0  0  0  0  0  0  0  0  0  0
   -8.5810   20.2770   66.1070 N   0  0  0  0  0  0  0  0  0  0  0  0
   -7.8740   19.5080   66.9310 C   0  0  0  0  0  0  0  0  0  0  0  0
   -8.4280   18.3420   67.5110 C   0  0  0  0  0  0  0  0  0  0  0  0
   -6.5460   19.8770   67.2170 C   0  0  0  0  0  0  0  0  0  0  0  0
   -7.5590   17.6090   68.3630 C   0  0  0  0  0  0  0  0  0  0  0  0
   -6.2590   18.0440   68.6810 C   0  0  0  0  0  0  0  0  0  0  0  0
   -5.5070   17.3490   69.7250 C   0  0  0  0  0  0  0  0  0  0  0  0
   -5.7240   19.1680   68.0930 C   0  0  0  0  0  0  0  0  0  0  0  0
   -6.0590   16.5100   70.4220 O   0  0  0  0  0  0  0  0  0  0  0  0
   -4.0690   17.7620   69.9200 C   0  0  0  0  0  0  0  0  0  0  0  0
   -3.2720   16.9830   70.4170 O   0  0  0  0  0  0  0  0  0  0  0  0
   -3.7910   19.1950   69.5180 C   0  0  0  0  0  0  0  0  0  0  0  0
   -4.4550   19.6230   68.3130 O   0  0  0  0  0  0  0  0  0  0  0  0
   -6.0570   20.9900   66.6450 F   0  0  0  0  0  0  0  0  0  0  0  0
   -4.1450   20.1230   70.6500 C   0  0  0  0  0  0  0  0  0  0  0  0
   -5.3720   20.9820   70.5370 N   0  0  0  0  0  0  0  0  0  0  0  0
   -3.9650   19.5520   71.9450 O   0  0  0  0  0  0  0  0  0  0  0  0
   -3.1360   20.5720   71.6360 C   0  0  0  0  0  0  0  0  0  0  0  0
   -2.9960   21.6470   72.1650 O   0  0  0  0  0  0  0  0  0  0  0  0
  -10.8070   15.6140   65.7360 O   0  0  0  0  0  0  0  0  0  0  0  0
  -10.3050   14.3620   65.1450 C   0  0  0  0  0  0  0  0  0  0  0  0
   -9.7020   13.5370   66.1240 O   0  0  0  0  0  0  0  0  0  0  0  0
   -9.6420   12.1760   65.8790 C   0  0  0  0  0  0  0  0  0  0  0  0
   -8.6310   11.4270   66.3370 C   0  0  0  0  0  0  0  0  0  0  0  0
  -10.7490   11.4560   65.1980 C   0  0  0  0  0  0  0  0  0  0  0  0
   -7.5460   11.9500   66.9910 O   0  0  0  0  0  0  0  0  0  0  0  0
  -11.8630   12.3760   64.7840 C   0  0  0  0  0  0  0  0  0  0  0  0
  -10.7750   10.2620   64.9670 O   0  0  0  0  0  0  0  0  0  0  0  0
  -11.5310   13.8000   64.4250 C   0  0  0  0  0  0  0  0  0  0  0  0
  -13.0290   12.0150   64.8220 O   0  0  0  0  0  0  0  0  0  0  0  0
  -12.2300   14.4480   63.6540 O   0  0  0  0  0  0  0  0  0  0  0  0
  -12.0480   15.5250   73.5440 C   0  0  0  0  0  0  0  0  0  0  0  0
  -11.9250   16.8740   74.0140 O   0  0  0  0  0  0  0  0  0  0  0  0
  -13.1680   16.1670   74.1820 O   0  0  0  0  0  0  0  0  0  0  0  0
  1 40  1  0  0  0  0
  1  2  2  0  0  0  0
  1  6  1  0  0  0  0
  2  3  1  0  0  0  0
  2 17  1  0  0  0  0
  3  4  1  0  0  0  0
  4  5  2  0  0  0  0
  4 15  1  0  0  0  0
  5  6  1  0  0  0  0
  5  7  1  0  0  0  0
  7  8  1  0  0  0  0
  7 13  1  0  0  0  0
  8  9  1  0  0  0  0
  9 10  2  0  0  0  0
  9 11  1  0  0  0  0
 11 12  1  0  0  0  0
 12 13  1  0  0  0  0
 12 16  1  0  0  0  0
 13 14  2  0  0  0  0
 14 15  1  0  0  0  0
 14 52  1  0  0  0  0
 17 18  2  0  0  0  0
 17 23  1  0  0  0  0
 18 19  1  0  0  0  0
 19 20  1  0  0  0  0
 19 21  2  0  0  0  0
 21 22  1  0  0  0  0
 22 23  2  0  0  0  0
 22 24  1  0  0  0  0
 23 25  1  0  0  0  0
 24 28  2  0  0  0  0
 24 34  1  0  0  0  0
 25 26  2  0  0  0  0
 26 27  1  0  0  0  0
 26 28  1  0  0  0  0
 27 29  2  0  0  0  0
 27 30  1  0  0  0  0
 28 33  1  0  0  0  0
 30 31  2  0  0  0  0
 30 32  1  0  0  0  0
 32 33  1  0  0  0  0
 32 35  1  0  0  0  0
 35 36  1  0  0  0  0
 35 37  1  0  0  0  0
 35 38  1  0  0  0  0
 37 38  1  0  0  0  0
 38 39  2  0  0  0  0
 40 41  1  0  0  0  0
 41 42  1  0  0  0  0
 41 49  1  0  0  0  0
 42 43  1  0  0  0  0
 43 44  2  0  0  0  0
 43 45  1  0  0  0  0
 44 46  1  0  0  0  0
 45 47  1  0  0  0  0
 45 48  2  0  0  0  0
 47 49  1  0  0  0  0
 47 50  2  0  0  0  0
 49 51  2  0  0  0  0
 52 53  1  0  0  0  0
 52 54  1  0  0  0  0
 53 54  1  0  0  0  0
M  CHG  2  15   1  19   1
M  END