
 OpenBabel10242017333D

 51 58  0  0  1  0  0  0  0  0999 V2000
   -9.8810   15.6850   67.6860 C   0  0  0  0  0  0  0  0  0  0  0  0
   -9.9070   16.8960   68.2860 C   0  0  0  0  0  0  0  0  0  0  0  0
  -10.4820   17.1180   69.5390 O   0  0  0  0  0  0  0  0  0  0  0  0
  -11.1530   16.0790   70.1700 C   0  0  0  0  0  0  0  0  0  0  0  0
  -11.1460   14.8360   69.6660 C   0  0  0  0  0  0  0  0  0  0  0  0
  -10.4630   14.4820   68.3890 C   0  0  0  0  0  0  0  0  0  0  0  0
  -11.8800   13.7660   70.3960 C   0  0  0  0  0  0  0  0  0  0  0  0
  -11.8450   12.5510   69.9540 N   0  0  0  0  0  0  0  0  0  0  0  0
  -12.5280   11.5660   70.6310 C   0  0  0  0  0  0  0  0  0  0  0  0
  -12.4150   10.4130   70.2380 O   0  0  0  0  0  0  0  0  0  0  0  0
  -13.3460   11.8230   71.7110 N   0  0  0  0  0  0  0  0  0  0  0  0
  -13.3930   13.0220   72.1860 C   0  0  0  0  0  0  0  0  0  0  0  0
  -12.6350   14.1440   71.6160 C   0  0  0  0  0  0  0  0  0  0  0  0
  -12.5540   15.4210   72.0390 C   0  0  0  0  0  0  0  0  0  0  0  0
  -11.8370   16.3820   71.3270 N   0  0  0  0  0  0  0  0  0  0  0  0
   -9.3470   18.1140   67.6680 C   0  0  0  0  0  0  0  0  0  0  0  0
  -10.1720   18.7150   66.7840 N   0  0  0  0  0  0  0  0  0  0  0  0
   -9.7060   19.8320   66.2180 C   0  0  0  0  0  0  0  0  0  0  0  0
   -8.5230   20.4110   66.4650 N   0  0  0  0  0  0  0  0  0  0  0  0
   -7.7140   19.8020   67.3350 C   0  0  0  0  0  0  0  0  0  0  0  0
   -8.0730   18.6140   67.9910 C   0  0  0  0  0  0  0  0  0  0  0  0
   -6.4620   20.3630   67.5900 C   0  0  0  0  0  0  0  0  0  0  0  0
   -7.1600   18.0200   68.8910 C   0  0  0  0  0  0  0  0  0  0  0  0
   -5.9020   18.5930   69.0940 C   0  0  0  0  0  0  0  0  0  0  0  0
   -5.5280   19.7700   68.4450 C   0  0  0  0  0  0  0  0  0  0  0  0
   -4.9360   17.9380   69.9830 C   0  0  0  0  0  0  0  0  0  0  0  0
   -4.2650   20.3830   68.5800 N   0  0  0  0  0  0  0  0  0  0  0  0
   -3.3050   19.7630   69.2010 C   0  0  0  0  0  0  0  0  0  0  0  0
   -3.5170   18.4460   69.8780 C   0  0  0  0  0  0  0  0  0  0  0  0
   -2.5820   17.8210   70.3450 O   0  0  0  0  0  0  0  0  0  0  0  0
   -5.2540   17.0600   70.7670 O   0  0  0  0  0  0  0  0  0  0  0  0
   -1.9680   20.3550   69.3220 C   0  0  0  0  0  0  0  0  0  0  0  0
   -0.9190   19.7050   68.5720 O   0  0  0  0  0  0  0  0  0  0  0  0
   -1.8810   21.7840   69.3130 O   0  0  0  0  0  0  0  0  0  0  0  0
   -1.5980   21.1700   70.4610 C   0  0  0  0  0  0  0  0  0  0  0  0
   -2.0900   21.3470   71.5730 O   0  0  0  0  0  0  0  0  0  0  0  0
   -9.2780   15.5150   66.4490 O   0  0  0  0  0  0  0  0  0  0  0  0
   -9.9060   14.6250   65.5090 C   0  0  0  0  0  0  0  0  0  0  0  0
  -10.3860   13.4400   66.1410 O   0  0  0  0  0  0  0  0  0  0  0  0
  -10.9200   12.5450   65.2330 C   0  0  0  0  0  0  0  0  0  0  0  0
  -10.5530   11.2580   65.2100 C   0  0  0  0  0  0  0  0  0  0  0  0
  -11.9270   13.0090   64.2430 C   0  0  0  0  0  0  0  0  0  0  0  0
   -9.5950   10.7420   66.0420 O   0  0  0  0  0  0  0  0  0  0  0  0
  -12.0760   14.5140   64.1880 C   0  0  0  0  0  0  0  0  0  0  0  0
  -12.5500   12.2700   63.5000 O   0  0  0  0  0  0  0  0  0  0  0  0
  -11.0340   15.3980   64.8390 C   0  0  0  0  0  0  0  0  0  0  0  0
  -13.0190   15.0130   63.5930 O   0  0  0  0  0  0  0  0  0  0  0  0
  -11.0980   16.6160   64.7370 O   0  0  0  0  0  0  0  0  0  0  0  0
  -13.2490   15.8440   73.2950 C   0  0  0  0  0  0  0  0  0  0  0  0
  -14.3460   16.3700   73.3430 O   0  0  0  0  0  0  0  0  0  0  0  0
  -12.5300   15.5400   74.3980 O   0  0  0  0  0  0  0  0  0  0  0  0
  1 37  1  0  0  0  0
  1  2  2  0  0  0  0
  1  6  1  0  0  0  0
  2  3  1  0  0  0  0
  2 16  1  0  0  0  0
  3  4  1  0  0  0  0
  4  5  2  0  0  0  0
  4 15  1  0  0  0  0
  5  6  1  0  0  0  0
  5  7  1  0  0  0  0
  7  8  2  0  0  0  0
  7 13  1  0  0  0  0
  8  9  1  0  0  0  0
  9 10  2  0  0  0  0
  9 11  1  0  0  0  0
 11 12  2  0  0  0  0
 12 13  1  0  0  0  0
 13 14  2  0  0  0  0
 14 15  1  0  0  0  0
 14 49  1  0  0  0  0
 16 17  2  0  0  0  0
 16 21  1  0  0  0  0
 17 18  1  0  0  0  0
 18 19  2  0  0  0  0
 19 20  1  0  0  0  0
 20 21  2  0  0  0  0
 20 22  1  0  0  0  0
 21 23  1  0  0  0  0
 22 25  2  0  0  0  0
 23 24  2  0  0  0  0
 24 25  1  0  0  0  0
 24 26  1  0  0  0  0
 25 27  1  0  0  0  0
 26 29  1  0  0  0  0
 26 31  2  0  0  0  0
 27 28  2  0  0  0  0
 28 29  1  0  0  0  0
 28 32  1  0  0  0  0
 29 30  2  0  0  0  0
 32 33  1  0  0  0  0
 32 34  1  0  0  0  0
 32 35  1  0  0  0  0
 34 35  1  0  0  0  0
 35 36  2  0  0  0  0
 37 38  1  0  0  0  0
 38 39  1  0  0  0  0
 38 46  1  0  0  0  0
 39 40  1  0  0  0  0
 40 41  2  0  0  0  0
 40 42  1  0  0  0  0
 41 43  1  0  0  0  0
 42 44  1  0  0  0  0
 42 45  2  0  0  0  0
 44 46  1  0  0  0  0
 44 47  2  0  0  0  0
 46 48  2  0  0  0  0
 49 50  2  0  0  0  0
 49 51  1  0  0  0  0
M  END
