
 OpenBabel11012010063D

 52 60  0  0  1  0  0  0  0  0999 V2000
  -11.0050   15.7500   67.0650 C   0  0  0  0  0  0  0  0  0  0  0  0
  -10.6270   16.8000   67.8330 C   0  0  0  0  0  0  0  0  0  0  0  0
  -10.9860   16.8880   69.1740 O   0  0  0  0  0  0  0  0  0  0  0  0
  -11.7370   15.9010   69.7700 C   0  0  0  0  0  0  0  0  0  0  0  0
  -12.0380   14.7600   69.1340 C   0  0  0  0  0  0  0  0  0  0  0  0
  -11.7420   14.5820   67.6830 C   0  0  0  0  0  0  0  0  0  0  0  0
  -12.7120   13.6330   69.8700 C   0  0  0  0  0  0  0  0  0  0  0  0
  -11.8120   12.5150   69.8150 O   0  0  0  0  0  0  0  0  0  0  0  0
  -11.9190   11.4660   70.6520 C   0  0  0  0  0  0  0  0  0  0  0  0
  -11.1880   10.4890   70.5090 O   0  0  0  0  0  0  0  0  0  0  0  0
  -12.9760   11.4890   71.7120 C   0  0  0  0  0  0  0  0  0  0  0  0
  -13.5940   12.8170   72.0120 C   0  0  0  0  0  0  0  0  0  0  0  0
  -14.5130   12.9510   72.8150 O   0  0  0  0  0  0  0  0  0  0  0  0
  -13.0430   13.9680   71.2860 C   0  0  0  0  0  0  0  0  0  0  0  0
  -12.8260   15.1820   71.8300 C   0  0  0  0  0  0  0  0  0  0  0  0
  -12.1630   16.1230   71.0540 N   0  0  0  0  0  0  0  0  0  0  0  0
   -9.7780   17.9400   67.3670 C   0  0  0  0  0  0  0  0  0  0  0  0
  -10.3960   18.7830   66.5090 N   0  0  0  0  0  0  0  0  0  0  0  0
   -9.7000   19.8310   66.0720 C   0  0  0  0  0  0  0  0  0  0  0  0
   -8.4360   20.1200   66.3990 N   0  0  0  0  0  0  0  0  0  0  0  0
   -7.8140   19.2750   67.2230 C   0  0  0  0  0  0  0  0  0  0  0  0
   -8.4270   18.1270   67.7470 C   0  0  0  0  0  0  0  0  0  0  0  0
   -6.4980   19.5660   67.5800 C   0  0  0  0  0  0  0  0  0  0  0  0
   -7.6490   17.2920   68.5970 C   0  0  0  0  0  0  0  0  0  0  0  0
   -6.3230   17.5930   68.9130 C   0  0  0  0  0  0  0  0  0  0  0  0
   -5.7480   18.7470   68.4310 C   0  0  0  0  0  0  0  0  0  0  0  0
   -5.5550   16.6640   69.7410 C   0  0  0  0  0  0  0  0  0  0  0  0
   -4.4830   19.1610   68.7060 O   0  0  0  0  0  0  0  0  0  0  0  0
   -3.7360   18.4590   69.6990 C   0  0  0  0  0  0  0  0  0  0  0  0
   -4.1810   17.0910   70.1780 C   0  0  0  0  0  0  0  0  0  0  0  0
   -3.5140   16.3580   70.8960 O   0  0  0  0  0  0  0  0  0  0  0  0
   -6.0100   15.5740   70.0570 O   0  0  0  0  0  0  0  0  0  0  0  0
   -3.5520   19.3800   70.8720 C   0  0  0  0  0  0  0  0  0  0  0  0
   -4.5910   19.3640   71.8760 O   0  0  0  0  0  0  0  0  0  0  0  0
   -2.2170   19.5140   71.3770 O   0  0  0  0  0  0  0  0  0  0  0  0
   -2.7360   20.5750   70.7540 C   0  0  0  0  0  0  0  0  0  0  0  0
   -2.3540   21.2020   69.7800 O   0  0  0  0  0  0  0  0  0  0  0  0
  -10.6870   15.6780   65.7120 O   0  0  0  0  0  0  0  0  0  0  0  0
  -10.4970   14.3780   65.1590 C   0  0  0  0  0  0  0  0  0  0  0  0
  -10.0310   13.4540   66.1440 O   0  0  0  0  0  0  0  0  0  0  0  0
   -9.7180   12.1960   65.6620 C   0  0  0  0  0  0  0  0  0  0  0  0
   -8.7340   11.4770   66.2160 C   0  0  0  0  0  0  0  0  0  0  0  0
  -10.4880   11.5820   64.5420 C   0  0  0  0  0  0  0  0  0  0  0  0
   -7.9600   11.9460   67.2460 O   0  0  0  0  0  0  0  0  0  0  0  0
  -11.5790   12.4680   63.9740 C   0  0  0  0  0  0  0  0  0  0  0  0
  -10.2540   10.4740   64.0830 O   0  0  0  0  0  0  0  0  0  0  0  0
  -11.7870   13.8360   64.5670 C   0  0  0  0  0  0  0  0  0  0  0  0
  -12.2290   12.1110   63.0050 O   0  0  0  0  0  0  0  0  0  0  0  0
  -12.8760   14.3850   64.5190 O   0  0  0  0  0  0  0  0  0  0  0  0
  -13.2010   15.5940   73.2030 C   0  0  0  0  0  0  0  0  0  0  0  0
  -12.4080   15.2330   74.3440 O   0  0  0  0  0  0  0  0  0  0  0  0
  -12.4680   16.6070   73.9170 O   0  0  0  0  0  0  0  0  0  0  0  0
  1 38  1  0  0  0  0
  1  2  2  0  0  0  0
  1  6  1  0  0  0  0
  2  3  1  0  0  0  0
  2 17  1  0  0  0  0
  3  4  1  0  0  0  0
  4  5  2  0  0  0  0
  4 16  1  0  0  0  0
  5  6  1  0  0  0  0
  5  7  1  0  0  0  0
  7  8  1  0  0  0  0
  7 14  1  0  0  0  0
  8  9  1  0  0  0  0
  9 10  2  0  0  0  0
  9 11  1  0  0  0  0
 11 12  1  0  0  0  0
 12 13  2  0  0  0  0
 12 14  1  0  0  0  0
 14 15  2  0  0  0  0
 15 16  1  0  0  0  0
 15 50  1  0  0  0  0
 17 18  2  0  0  0  0
 17 22  1  0  0  0  0
 18 19  1  0  0  0  0
 19 20  2  0  0  0  0
 20 21  1  0  0  0  0
 21 22  2  0  0  0  0
 21 23  1  0  0  0  0
 22 24  1  0  0  0  0
 23 26  2  0  0  0  0
 24 25  2  0  0  0  0
 25 26  1  0  0  0  0
 25 27  1  0  0  0  0
 26 28  1  0  0  0  0
 27 30  1  0  0  0  0
 27 32  2  0  0  0  0
 28 29  1  0  0  0  0
 29 30  1  0  0  0  0
 29 33  1  0  0  0  0
 30 31  2  0  0  0  0
 33 34  1  0  0  0  0
 33 35  1  0  0  0  0
 33 36  1  0  0  0  0
 35 36  1  0  0  0  0
 36 37  2  0  0  0  0
 38 39  1  0  0  0  0
 39 40  1  0  0  0  0
 39 47  1  0  0  0  0
 40 41  1  0  0  0  0
 41 42  2  0  0  0  0
 41 43  1  0  0  0  0
 42 44  1  0  0  0  0
 43 45  1  0  0  0  0
 43 46  2  0  0  0  0
 45 47  1  0  0  0  0
 45 48  2  0  0  0  0
 47 49  2  0  0  0  0
 50 51  1  0  0  0  0
 50 52  1  0  0  0  0
 51 52  1  0  0  0  0
M  END
