
 OpenBabel11212022163D

 54 62  0  0  1  0  0  0  0  0999 V2000
  -11.0930   15.5280   67.4900 C   0  0  0  0  0  0  0  0  0  0  0  0
  -10.7350   16.6600   68.1260 C   0  0  0  0  0  0  0  0  0  0  0  0
  -11.1230   16.9590   69.4300 O   0  0  0  0  0  0  0  0  0  0  0  0
  -11.8340   16.0060   70.1680 C   0  0  0  0  0  0  0  0  0  0  0  0
  -12.1830   14.8210   69.6330 C   0  0  0  0  0  0  0  0  0  0  0  0
  -11.9180   14.4860   68.1930 C   0  0  0  0  0  0  0  0  0  0  0  0
  -12.8920   13.7590   70.4320 C   0  0  0  0  0  0  0  0  0  0  0  0
  -11.9940   12.6690   70.5650 O   0  0  0  0  0  0  0  0  0  0  0  0
  -12.4020   11.6080   71.3150 C   0  0  0  0  0  0  0  0  0  0  0  0
  -11.8070   10.5450   71.2950 O   0  0  0  0  0  0  0  0  0  0  0  0
  -13.5070   11.8170   72.0740 O   0  0  0  0  0  0  0  0  0  0  0  0
  -13.8600   13.1090   72.5530 C   0  0  0  0  0  0  0  0  0  0  0  0
  -13.1800   14.2070   71.8150 C   0  0  0  0  0  0  0  0  0  0  0  0
  -12.8320   15.4260   72.2850 C   0  0  0  0  0  0  0  0  0  0  0  0
  -12.1550   16.3200   71.4690 O   0  0  0  0  0  0  0  0  0  0  0  0
  -15.2390   13.3220   72.3260 O   0  0  0  0  0  0  0  0  0  0  0  0
   -9.8850   17.6730   67.4670 C   0  0  0  0  0  0  0  0  0  0  0  0
  -10.4720   18.5430   66.5520 C   0  0  0  0  0  0  0  0  0  0  0  0
   -9.7540   19.5170   65.9800 N   0  0  0  0  0  0  0  0  0  0  0  0
  -10.3460   20.3280   65.0800 F   0  0  0  0  0  0  0  0  0  0  0  0
   -8.4790   19.7160   66.2580 N   0  0  0  0  0  0  0  0  0  0  0  0
   -7.8630   18.9350   67.1520 C   0  0  0  0  0  0  0  0  0  0  0  0
   -8.5270   17.8710   67.7890 C   0  0  0  0  0  0  0  0  0  0  0  0
   -6.5260   19.1790   67.4770 C   0  0  0  0  0  0  0  0  0  0  0  0
   -7.8060   17.0740   68.7100 C   0  0  0  0  0  0  0  0  0  0  0  0
   -6.4590   17.3420   68.9990 C   0  0  0  0  0  0  0  0  0  0  0  0
   -5.7140   16.4630   69.9050 C   0  0  0  0  0  0  0  0  0  0  0  0
   -5.8170   18.4140   68.4070 C   0  0  0  0  0  0  0  0  0  0  0  0
   -6.2420   15.4690   70.3750 O   0  0  0  0  0  0  0  0  0  0  0  0
   -4.2710   16.8270   70.1750 C   0  0  0  0  0  0  0  0  0  0  0  0
   -3.4930   16.0010   70.6220 O   0  0  0  0  0  0  0  0  0  0  0  0
   -3.9300   18.2680   69.8680 C   0  0  0  0  0  0  0  0  0  0  0  0
   -4.5220   18.7660   68.6560 O   0  0  0  0  0  0  0  0  0  0  0  0
   -5.9000   20.2020   66.8740 F   0  0  0  0  0  0  0  0  0  0  0  0
   -4.2780   19.1550   71.0190 C   0  0  0  0  0  0  0  0  0  0  0  0
   -5.2210   18.6250   71.9920 O   0  0  0  0  0  0  0  0  0  0  0  0
   -3.1980   19.9090   71.5530 O   0  0  0  0  0  0  0  0  0  0  0  0
   -4.1900   20.6170   70.9750 C   0  0  0  0  0  0  0  0  0  0  0  0
   -4.9590   21.4180   71.4670 O   0  0  0  0  0  0  0  0  0  0  0  0
  -10.6400   15.2800   66.2050 O   0  0  0  0  0  0  0  0  0  0  0  0
  -10.7430   13.9390   65.6950 C   0  0  0  0  0  0  0  0  0  0  0  0
  -10.6920   13.9270   64.2710 O   0  0  0  0  0  0  0  0  0  0  0  0
  -10.8630   12.6410   63.6780 C   0  0  0  0  0  0  0  0  0  0  0  0
  -10.1240   11.4790   64.3150 C   0  0  0  0  0  0  0  0  0  0  0  0
   -9.4980   11.7800   65.6610 C   0  0  0  0  0  0  0  0  0  0  0  0
  -10.0950   10.3580   63.8330 O   0  0  0  0  0  0  0  0  0  0  0  0
   -9.5160   13.1930   66.1750 C   0  0  0  0  0  0  0  0  0  0  0  0
   -9.0450   10.8900   66.3590 O   0  0  0  0  0  0  0  0  0  0  0  0
   -8.6050   13.6580   66.8440 O   0  0  0  0  0  0  0  0  0  0  0  0
  -12.3310   12.2710   63.5150 C   0  0  0  0  0  0  0  0  0  0  0  0
  -13.1390   12.3380   64.4370 O   0  0  0  0  0  0  0  0  0  0  0  0
  -13.1010   15.9120   73.6610 C   0  0  0  0  0  0  0  0  0  0  0  0
  -12.3150   15.4400   74.7650 O   0  0  0  0  0  0  0  0  0  0  0  0
  -12.1660   16.7970   74.3090 O   0  0  0  0  0  0  0  0  0  0  0  0
  1 40  1  0  0  0  0
  1  2  2  0  0  0  0
  1  6  1  0  0  0  0
  2  3  1  0  0  0  0
  2 17  1  0  0  0  0
  3  4  1  0  0  0  0
  4  5  2  0  0  0  0
  4 15  1  0  0  0  0
  5  6  1  0  0  0  0
  5  7  1  0  0  0  0
  7  8  1  0  0  0  0
  7 13  1  0  0  0  0
  8  9  1  0  0  0  0
  9 10  2  0  0  0  0
  9 11  1  0  0  0  0
 11 12  1  0  0  0  0
 12 13  1  0  0  0  0
 12 16  1  0  0  0  0
 13 14  2  0  0  0  0
 14 15  1  0  0  0  0
 14 52  1  0  0  0  0
 17 18  2  0  0  0  0
 17 23  1  0  0  0  0
 18 19  1  0  0  0  0
 19 20  1  0  0  0  0
 19 21  2  0  0  0  0
 21 22  1  0  0  0  0
 22 23  2  0  0  0  0
 22 24  1  0  0  0  0
 23 25  1  0  0  0  0
 24 28  2  0  0  0  0
 24 34  1  0  0  0  0
 25 26  2  0  0  0  0
 26 27  1  0  0  0  0
 26 28  1  0  0  0  0
 27 29  2  0  0  0  0
 27 30  1  0  0  0  0
 28 33  1  0  0  0  0
 30 31  2  0  0  0  0
 30 32  1  0  0  0  0
 32 33  1  0  0  0  0
 32 35  1  0  0  0  0
 35 36  1  0  0  0  0
 35 37  1  0  0  0  0
 35 38  1  0  0  0  0
 37 38  1  0  0  0  0
 38 39  2  0  0  0  0
 40 41  1  0  0  0  0
 41 42  1  0  0  0  0
 41 47  1  0  0  0  0
 42 43  1  0  0  0  0
 43 50  1  0  0  0  0
 43 44  1  0  0  0  0
 44 45  1  0  0  0  0
 44 46  2  0  0  0  0
 45 47  1  0  0  0  0
 45 48  2  0  0  0  0
 47 49  2  0  0  0  0
 50 51  2  0  0  0  0
 52 53  1  0  0  0  0
 52 54  1  0  0  0  0
 53 54  1  0  0  0  0
M  CHG  2  15   1  19   1
M  END