
 OpenBabel04222117353D

 60 67  0  0  1  0  0  0  0  0999 V2000
  -10.2270   19.1850   65.8270 O   0  0  0  0  0  0  0  0  0  0  0  0
  -10.6430   17.9540   66.4470 C   0  0  0  0  0  0  0  0  0  0  0  0
   -9.9470   17.7760   67.8110 C   0  0  0  0  0  0  0  0  0  0  0  0
  -10.3690   16.3920   68.3570 C   0  0  0  0  0  0  0  0  0  0  0  0
   -9.8830   15.3970   67.4560 O   0  0  0  0  0  0  0  0  0  0  0  0
  -10.5230   15.4360   66.1760 C   0  0  0  0  0  0  0  0  0  0  0  0
  -10.3390   16.7950   65.4860 C   0  0  0  0  0  0  0  0  0  0  0  0
  -11.2060   16.9010   64.3360 O   0  0  0  0  0  0  0  0  0  0  0  0
  -11.7840   16.2790   68.5950 O   0  0  0  0  0  0  0  0  0  0  0  0
  -12.1550   15.3020   69.4950 C   0  0  0  0  0  0  0  0  0  0  0  0
  -12.9320   15.7270   70.5790 C   0  0  0  0  0  0  0  0  0  0  0  0
  -13.3730   14.7900   71.5230 C   0  0  0  0  0  0  0  0  0  0  0  0
  -14.1010   15.1740   72.6180 O   0  0  0  0  0  0  0  0  0  0  0  0
  -13.0770   13.4280   71.3820 C   0  0  0  0  0  0  0  0  0  0  0  0
  -12.2790   13.0220   70.3170 C   0  0  0  0  0  0  0  0  0  0  0  0
  -13.6240   12.3970   72.3180 C   0  0  0  0  0  0  0  0  0  0  0  0
  -11.8220   13.9470   69.3860 C   0  0  0  0  0  0  0  0  0  0  0  0
  -11.8850   11.7200   70.0970 O   0  0  0  0  0  0  0  0  0  0  0  0
  -12.3050   10.7390   70.9820 C   0  0  0  0  0  0  0  0  0  0  0  0
  -13.1150   11.0220   72.0200 C   0  0  0  0  0  0  0  0  0  0  0  0
  -11.7620    9.3750   70.7140 C   0  0  0  0  0  0  0  0  0  0  0  0
  -12.0750    8.2570   71.5060 C   0  0  0  0  0  0  0  0  0  0  0  0
  -11.5870    6.9930   71.1530 C   0  0  0  0  0  0  0  0  0  0  0  0
  -11.8460    5.8820   71.9150 O   0  0  0  0  0  0  0  0  0  0  0  0
  -10.8000    6.8140   70.0140 C   0  0  0  0  0  0  0  0  0  0  0  0
  -10.4330    7.8990   69.2290 C   0  0  0  0  0  0  0  0  0  0  0  0
  -10.3610    5.5590   69.6880 O   0  0  0  0  0  0  0  0  0  0  0  0
  -10.9020    9.1670   69.6200 C   0  0  0  0  0  0  0  0  0  0  0  0
   -9.4980    7.7310   68.0460 C   0  0  0  0  0  0  0  0  0  0  0  0
   -8.0370    7.5910   68.5030 C   0  0  0  0  0  0  0  0  0  0  0  0
   -7.3880    8.8760   68.3230 O   0  0  0  0  0  0  0  0  0  0  0  0
   -8.2020    9.5150   67.4120 C   0  0  0  0  0  0  0  0  0  0  0  0
   -9.3760    8.9390   67.1760 C   0  0  0  0  0  0  0  0  0  0  0  0
   -8.5140   17.9310   67.5760 O   0  0  0  0  0  0  0  0  0  0  0  0
   -7.8400   18.8820   68.4160 C   0  0  0  0  0  0  0  0  0  0  0  0
   -7.6990   20.1590   67.7640 O   0  0  0  0  0  0  0  0  0  0  0  0
   -6.3000   20.5420   67.8100 C   0  0  0  0  0  0  0  0  0  0  0  0
   -5.4860   19.2590   67.9250 C   0  0  0  0  0  0  0  0  0  0  0  0
   -6.4020   18.4430   68.8410 C   0  0  0  0  0  0  0  0  0  0  0  0
   -5.4450   18.5980   66.6540 O   0  0  0  0  0  0  0  0  0  0  0  0
   -6.1320   17.0470   68.7250 O   0  0  0  0  0  0  0  0  0  0  0  0
   -4.0190   19.4320   68.4190 C   0  0  0  0  0  0  0  0  0  0  0  0
   -3.7640   19.1850   69.9400 C   0  0  0  0  0  0  0  0  0  0  0  0
   -2.3210   19.5070   70.4510 C   0  0  0  0  0  0  0  0  0  0  0  0
   -1.3780   19.6000   69.3870 O   0  0  0  0  0  0  0  0  0  0  0  0
   -2.3760   20.8550   71.2220 C   0  0  0  0  0  0  0  0  0  0  0  0
   -3.8250   21.3310   71.0990 C   0  0  0  0  0  0  0  0  0  0  0  0
   -1.9970   20.6890   72.5950 O   0  0  0  0  0  0  0  0  0  0  0  0
   -4.6110   20.0360   70.8960 C   0  0  0  0  0  0  0  0  0  0  0  0
   -4.2890   22.0000   72.2750 O   0  0  0  0  0  0  0  0  0  0  0  0
   -4.7040   19.3550   72.1570 O   0  0  0  0  0  0  0  0  0  0  0  0
   -9.8860   14.4260   65.3840 O   0  0  0  0  0  0  0  0  0  0  0  0
   -9.7510   13.2310   65.9560 C   0  0  0  0  0  0  0  0  0  0  0  0
   -8.7840   12.8980   66.6450 O   0  0  0  0  0  0  0  0  0  0  0  0
  -10.9190   12.2730   65.5760 C   0  0  0  0  0  0  0  0  0  0  0  0
  -11.5760   11.6730   66.8130 C   0  0  0  0  0  0  0  0  0  0  0  0
  -11.9450   13.0870   64.7280 C   0  0  0  0  0  0  0  0  0  0  0  0
  -11.9010   12.5010   63.3170 C   0  0  0  0  0  0  0  0  0  0  0  0
  -10.5590   11.7970   63.2260 C   0  0  0  0  0  0  0  0  0  0  0  0
  -10.4280   11.1760   64.6110 C   0  0  0  0  0  0  0  0  0  0  0  0
  1  2  1  0  0  0  0
  2  3  1  0  0  0  0
  2  7  1  0  0  0  0
  3  4  1  0  0  0  0
  3 34  1  0  0  0  0
  4  5  1  0  0  0  0
  4  9  1  0  0  0  0
  5  6  1  0  0  0  0
  6  7  1  0  0  0  0
  6 52  1  0  0  0  0
  7  8  1  0  0  0  0
  9 10  1  0  0  0  0
 10 11  2  0  0  0  0
 10 17  1  0  0  0  0
 11 12  1  0  0  0  0
 12 13  1  0  0  0  0
 12 14  2  0  0  0  0
 14 15  1  0  0  0  0
 14 16  1  0  0  0  0
 15 17  2  0  0  0  0
 15 18  1  0  0  0  0
 16 20  1  0  0  0  0
 18 19  1  0  0  0  0
 19 20  2  0  0  0  0
 19 21  1  0  0  0  0
 21 22  2  0  0  0  0
 21 28  1  0  0  0  0
 22 23  1  0  0  0  0
 23 24  1  0  0  0  0
 23 25  2  0  0  0  0
 25 26  1  0  0  0  0
 25 27  1  0  0  0  0
 26 28  2  0  0  0  0
 26 29  1  0  0  0  0
 29 30  1  0  0  0  0
 29 33  1  0  0  0  0
 30 31  1  0  0  0  0
 31 32  1  0  0  0  0
 32 33  2  0  0  0  0
 34 35  1  0  0  0  0
 35 36  1  0  0  0  0
 35 39  1  0  0  0  0
 36 37  1  0  0  0  0
 37 38  1  0  0  0  0
 38 39  1  0  0  0  0
 38 42  1  0  0  0  0
 38 40  1  0  0  0  0
 39 41  1  0  0  0  0
 42 43  1  0  0  0  0
 43 44  1  0  0  0  0
 43 49  1  0  0  0  0
 44 45  1  0  0  0  0
 44 46  1  0  0  0  0
 46 47  1  0  0  0  0
 46 50  1  0  0  0  0
 47 49  1  0  0  0  0
 47 48  1  0  0  0  0
 49 51  1  0  0  0  0
 52 53  1  0  0  0  0
 53 54  2  0  0  0  0
 53 55  1  0  0  0  0
 55 56  1  0  0  0  0
 55 57  1  0  0  0  0
 55 60  1  0  0  0  0
 57 58  1  0  0  0  0
 58 59  1  0  0  0  0
 59 60  1  0  0  0  0
M  END
