
 OpenBabel11222001453D

 54 63  0  0  1  0  0  0  0  0999 V2000
  -11.1140   15.7680   67.4670 C   0  0  0  0  0  0  0  0  0  0  0  0
  -10.4980   16.7400   68.1840 C   0  0  0  0  0  0  0  0  0  0  0  0
  -10.6370   16.8000   69.5800 O   0  0  0  0  0  0  0  0  0  0  0  0
  -11.4100   15.8580   70.2690 C   0  0  0  0  0  0  0  0  0  0  0  0
  -11.9680   14.8180   69.6250 C   0  0  0  0  0  0  0  0  0  0  0  0
  -11.8970   14.6700   68.1400 C   0  0  0  0  0  0  0  0  0  0  0  0
  -12.7120   13.7290   70.3480 C   0  0  0  0  0  0  0  0  0  0  0  0
  -11.9310   12.5550   70.2240 O   0  0  0  0  0  0  0  0  0  0  0  0
  -12.3120   11.4420   70.9080 C   0  0  0  0  0  0  0  0  0  0  0  0
  -11.8220   10.3490   70.6570 O   0  0  0  0  0  0  0  0  0  0  0  0
  -13.2380   11.6220   71.8720 O   0  0  0  0  0  0  0  0  0  0  0  0
  -13.5570   12.8900   72.4470 C   0  0  0  0  0  0  0  0  0  0  0  0
  -12.8300   14.0070   71.7930 C   0  0  0  0  0  0  0  0  0  0  0  0
  -12.3100   15.1100   72.3780 C   0  0  0  0  0  0  0  0  0  0  0  0
  -11.5760   16.0220   71.6290 O   0  0  0  0  0  0  0  0  0  0  0  0
  -14.9270   13.1590   72.2310 O   0  0  0  0  0  0  0  0  0  0  0  0
   -9.6420   17.8240   67.5610 C   0  0  0  0  0  0  0  0  0  0  0  0
  -10.2000   18.6450   66.5710 C   0  0  0  0  0  0  0  0  0  0  0  0
   -9.5270   19.6710   66.0400 N   0  0  0  0  0  0  0  0  0  0  0  0
  -10.1410   20.4530   65.1320 F   0  0  0  0  0  0  0  0  0  0  0  0
   -8.2870   19.9520   66.3720 N   0  0  0  0  0  0  0  0  0  0  0  0
   -7.6510   19.1930   67.2610 C   0  0  0  0  0  0  0  0  0  0  0  0
   -8.2820   18.0890   67.8930 C   0  0  0  0  0  0  0  0  0  0  0  0
   -6.3190   19.5130   67.5660 C   0  0  0  0  0  0  0  0  0  0  0  0
   -7.5010   17.3360   68.8010 C   0  0  0  0  0  0  0  0  0  0  0  0
   -6.1740   17.6740   69.0390 C   0  0  0  0  0  0  0  0  0  0  0  0
   -5.3330   16.8960   69.8540 C   0  0  0  0  0  0  0  0  0  0  0  0
   -5.5610   18.7790   68.4680 C   0  0  0  0  0  0  0  0  0  0  0  0
   -5.2140   15.7750   70.4520 N   0  0  0  0  0  0  0  0  0  0  0  0
   -4.0500   17.3130   70.2660 C   0  0  0  0  0  0  0  0  0  0  0  0
   -3.8730   16.2090   70.8870 N   0  0  0  0  0  0  0  0  0  0  0  0
   -3.5880   18.6590   69.9230 C   0  0  0  0  0  0  0  0  0  0  0  0
   -4.2510   19.1390   68.7030 O   0  0  0  0  0  0  0  0  0  0  0  0
   -5.7570   20.5680   66.9540 F   0  0  0  0  0  0  0  0  0  0  0  0
   -3.8780   19.6160   71.0430 C   0  0  0  0  0  0  0  0  0  0  0  0
   -4.9600   19.2590   71.9330 O   0  0  0  0  0  0  0  0  0  0  0  0
   -2.7170   20.1600   71.6730 O   0  0  0  0  0  0  0  0  0  0  0  0
   -3.5430   21.0910   70.9690 C   0  0  0  0  0  0  0  0  0  0  0  0
   -4.3270   21.9410   71.8240 O   0  0  0  0  0  0  0  0  0  0  0  0
  -10.9850   15.7040   66.0910 O   0  0  0  0  0  0  0  0  0  0  0  0
  -10.5680   14.4580   65.5010 C   0  0  0  0  0  0  0  0  0  0  0  0
  -10.0510   13.5850   66.4930 O   0  0  0  0  0  0  0  0  0  0  0  0
   -9.6960   12.3230   66.0440 C   0  0  0  0  0  0  0  0  0  0  0  0
   -8.7640   11.6240   66.7040 C   0  0  0  0  0  0  0  0  0  0  0  0
  -10.3550   11.6800   64.8620 C   0  0  0  0  0  0  0  0  0  0  0  0
   -8.1120   12.1230   67.8050 O   0  0  0  0  0  0  0  0  0  0  0  0
  -11.4490   12.5250   64.2270 C   0  0  0  0  0  0  0  0  0  0  0  0
  -10.0400   10.5920   64.4160 O   0  0  0  0  0  0  0  0  0  0  0  0
  -11.7950   13.8320   64.8850 C   0  0  0  0  0  0  0  0  0  0  0  0
  -11.9680   12.2290   63.1660 O   0  0  0  0  0  0  0  0  0  0  0  0
  -12.9290   14.2870   64.9320 O   0  0  0  0  0  0  0  0  0  0  0  0
  -12.4440   15.4120   73.8200 C   0  0  0  0  0  0  0  0  0  0  0  0
  -11.9480   16.6390   74.3640 O   0  0  0  0  0  0  0  0  0  0  0  0
  -13.3680   16.4170   74.2670 O   0  0  0  0  0  0  0  0  0  0  0  0
  1 40  1  0  0  0  0
  1  2  2  0  0  0  0
  1  6  1  0  0  0  0
  2  3  1  0  0  0  0
  2 17  1  0  0  0  0
  3  4  1  0  0  0  0
  4  5  2  0  0  0  0
  4 15  1  0  0  0  0
  5  6  1  0  0  0  0
  5  7  1  0  0  0  0
  7  8  1  0  0  0  0
  7 13  1  0  0  0  0
  8  9  1  0  0  0  0
  9 10  2  0  0  0  0
  9 11  1  0  0  0  0
 11 12  1  0  0  0  0
 12 13  1  0  0  0  0
 12 16  1  0  0  0  0
 13 14  2  0  0  0  0
 14 15  1  0  0  0  0
 14 52  1  0  0  0  0
 17 18  2  0  0  0  0
 17 23  1  0  0  0  0
 18 19  1  0  0  0  0
 19 20  1  0  0  0  0
 19 21  2  0  0  0  0
 21 22  1  0  0  0  0
 22 23  2  0  0  0  0
 22 24  1  0  0  0  0
 23 25  1  0  0  0  0
 24 28  2  0  0  0  0
 24 34  1  0  0  0  0
 25 26  2  0  0  0  0
 26 27  1  0  0  0  0
 26 28  1  0  0  0  0
 27 29  2  0  0  0  0
 27 30  1  0  0  0  0
 28 33  1  0  0  0  0
 29 31  1  0  0  0  0
 30 31  2  0  0  0  0
 30 32  1  0  0  0  0
 32 33  1  0  0  0  0
 32 35  1  0  0  0  0
 35 36  1  0  0  0  0
 35 37  1  0  0  0  0
 35 38  1  0  0  0  0
 37 38  1  0  0  0  0
 38 39  1  0  0  0  0
 40 41  1  0  0  0  0
 41 42  1  0  0  0  0
 41 49  1  0  0  0  0
 42 43  1  0  0  0  0
 43 44  2  0  0  0  0
 43 45  1  0  0  0  0
 44 46  1  0  0  0  0
 45 47  1  0  0  0  0
 45 48  2  0  0  0  0
 47 49  1  0  0  0  0
 47 50  2  0  0  0  0
 49 51  2  0  0  0  0
 52 53  1  0  0  0  0
 52 54  1  0  0  0  0
 53 54  1  0  0  0  0
M  CHG  2  15   1  19   1
M  END