
 OpenBabel11242001083D

 53 62  0  0  1  0  0  0  0  0999 V2000
  -11.1280   15.3830   66.7180 C   0  0  0  0  0  0  0  0  0  0  0  0
  -10.9830   16.4780   67.4970 C   0  0  0  0  0  0  0  0  0  0  0  0
  -11.4720   16.5350   68.8040 O   0  0  0  0  0  0  0  0  0  0  0  0
  -11.9010   15.3700   69.4220 C   0  0  0  0  0  0  0  0  0  0  0  0
  -12.0190   14.2130   68.7500 C   0  0  0  0  0  0  0  0  0  0  0  0
  -11.7830   14.1360   67.2770 C   0  0  0  0  0  0  0  0  0  0  0  0
  -12.4250   12.9490   69.4670 C   0  0  0  0  0  0  0  0  0  0  0  0
  -11.3170   12.0050   69.3680 N   0  0  0  0  0  0  0  0  0  0  0  0
  -11.4470   10.8200   70.0120 C   0  0  0  0  0  0  0  0  0  0  0  0
  -10.9560    9.7280   69.5530 N   0  0  0  0  0  0  0  0  0  0  0  0
  -12.0440   10.8670   71.2210 N   0  0  0  0  0  0  0  0  0  0  0  0
  -13.0610   11.8260   71.5810 C   0  0  0  0  0  0  0  0  0  0  0  0
  -12.7100   13.1310   70.9350 C   0  0  0  0  0  0  0  0  0  0  0  0
  -12.5940   14.3400   71.5300 C   0  0  0  0  0  0  0  0  0  0  0  0
  -12.1760   15.4250   70.7640 N   0  0  0  0  0  0  0  0  0  0  0  0
  -10.1330   17.6390   67.1510 C   0  0  0  0  0  0  0  0  0  0  0  0
  -10.7180   18.5550   66.2780 C   0  0  0  0  0  0  0  0  0  0  0  0
  -10.0770   19.6680   65.9170 N   0  0  0  0  0  0  0  0  0  0  0  0
  -10.6800   20.5240   65.0710 F   0  0  0  0  0  0  0  0  0  0  0  0
   -8.8750   19.9690   66.3640 N   0  0  0  0  0  0  0  0  0  0  0  0
   -8.2510   19.1320   67.1980 C   0  0  0  0  0  0  0  0  0  0  0  0
   -8.8310   17.9210   67.6260 C   0  0  0  0  0  0  0  0  0  0  0  0
   -6.9730   19.4660   67.6490 C   0  0  0  0  0  0  0  0  0  0  0  0
   -8.0690   17.0840   68.4820 C   0  0  0  0  0  0  0  0  0  0  0  0
   -6.7920   17.4670   68.9300 C   0  0  0  0  0  0  0  0  0  0  0  0
   -6.2380   18.6580   68.5140 C   0  0  0  0  0  0  0  0  0  0  0  0
   -6.0230   16.6070   69.8280 C   0  0  0  0  0  0  0  0  0  0  0  0
   -4.9680   19.0470   68.8280 O   0  0  0  0  0  0  0  0  0  0  0  0
   -4.3760   18.5080   70.0340 C   0  0  0  0  0  0  0  0  0  0  0  0
   -4.8370   17.2010   70.5470 C   0  0  0  0  0  0  0  0  0  0  0  0
   -2.9910   18.7290   70.1540 O   0  0  0  0  0  0  0  0  0  0  0  0
   -3.8560   19.4700   71.0700 C   0  0  0  0  0  0  0  0  0  0  0  0
   -4.3790   16.6770   71.5500 O   0  0  0  0  0  0  0  0  0  0  0  0
   -4.3050   20.8210   70.6590 O   0  0  0  0  0  0  0  0  0  0  0  0
   -3.1830   20.7120   71.3330 C   0  0  0  0  0  0  0  0  0  0  0  0
   -2.7860   21.2560   72.3410 O   0  0  0  0  0  0  0  0  0  0  0  0
   -6.3770   15.4560   70.0300 O   0  0  0  0  0  0  0  0  0  0  0  0
   -6.4270   20.6190   67.2260 F   0  0  0  0  0  0  0  0  0  0  0  0
  -10.5560   15.3150   65.4510 O   0  0  0  0  0  0  0  0  0  0  0  0
  -10.3700   13.9840   64.9380 C   0  0  0  0  0  0  0  0  0  0  0  0
  -10.0090   13.0730   65.9750 O   0  0  0  0  0  0  0  0  0  0  0  0
   -9.6840   11.8090   65.5050 C   0  0  0  0  0  0  0  0  0  0  0  0
   -8.7440   11.0760   66.1160 C   0  0  0  0  0  0  0  0  0  0  0  0
  -10.3750   11.2260   64.3150 C   0  0  0  0  0  0  0  0  0  0  0  0
   -8.0410   11.5300   67.2030 O   0  0  0  0  0  0  0  0  0  0  0  0
  -11.5400   12.0650   63.8240 C   0  0  0  0  0  0  0  0  0  0  0  0
  -10.0090   10.2190   63.7360 O   0  0  0  0  0  0  0  0  0  0  0  0
  -11.6550   13.4890   64.3030 C   0  0  0  0  0  0  0  0  0  0  0  0
  -12.4120   11.5870   62.9900 N   0  0  0  0  0  0  0  0  0  0  0  0
  -12.6910   14.1170   64.1380 O   0  0  0  0  0  0  0  0  0  0  0  0
  -12.8720   14.6190   72.9620 C   0  0  0  0  0  0  0  0  0  0  0  0
  -12.0420   15.5060   73.7340 O   0  0  0  0  0  0  0  0  0  0  0  0
  -13.3870   15.8900   73.3890 O   0  0  0  0  0  0  0  0  0  0  0  0
  1 39  1  0  0  0  0
  1  2  2  0  0  0  0
  1  6  1  0  0  0  0
  2  3  1  0  0  0  0
  2 16  1  0  0  0  0
  3  4  1  0  0  0  0
  4  5  2  0  0  0  0
  4 15  1  0  0  0  0
  5  6  1  0  0  0  0
  5  7  1  0  0  0  0
  7  8  1  0  0  0  0
  7 13  1  0  0  0  0
  8  9  1  0  0  0  0
  9 10  2  0  0  0  0
  9 11  1  0  0  0  0
 11 12  1  0  0  0  0
 12 13  1  0  0  0  0
 13 14  2  0  0  0  0
 14 15  1  0  0  0  0
 14 51  1  0  0  0  0
 16 17  2  0  0  0  0
 16 22  1  0  0  0  0
 17 18  1  0  0  0  0
 18 19  1  0  0  0  0
 18 20  2  0  0  0  0
 20 21  1  0  0  0  0
 21 22  2  0  0  0  0
 21 23  1  0  0  0  0
 22 24  1  0  0  0  0
 23 26  2  0  0  0  0
 23 38  1  0  0  0  0
 24 25  2  0  0  0  0
 25 26  1  0  0  0  0
 25 27  1  0  0  0  0
 26 28  1  0  0  0  0
 27 30  1  0  0  0  0
 27 37  2  0  0  0  0
 28 29  1  0  0  0  0
 29 30  1  0  0  0  0
 29 31  1  0  0  0  0
 29 32  1  0  0  0  0
 30 33  2  0  0  0  0
 31 32  1  0  0  0  0
 32 34  1  0  0  0  0
 32 35  1  0  0  0  0
 34 35  1  0  0  0  0
 35 36  2  0  0  0  0
 39 40  1  0  0  0  0
 40 41  1  0  0  0  0
 40 48  1  0  0  0  0
 41 42  1  0  0  0  0
 42 43  2  0  0  0  0
 42 44  1  0  0  0  0
 43 45  1  0  0  0  0
 44 46  1  0  0  0  0
 44 47  2  0  0  0  0
 46 48  1  0  0  0  0
 46 49  2  0  0  0  0
 48 50  2  0  0  0  0
 51 52  1  0  0  0  0
 51 53  1  0  0  0  0
 52 53  1  0  0  0  0
M  CHG  1  18   1
M  END