
 OpenBabel11242001543D

 53 60  0  0  1  0  0  0  0  0999 V2000
  -11.1400   15.9130   67.3830 C   0  0  0  0  0  0  0  0  0  0  0  0
  -10.5730   16.9250   68.0800 C   0  0  0  0  0  0  0  0  0  0  0  0
  -10.7420   17.0470   69.4690 O   0  0  0  0  0  0  0  0  0  0  0  0
  -11.4710   16.0870   70.1820 C   0  0  0  0  0  0  0  0  0  0  0  0
  -11.9810   15.0090   69.5610 C   0  0  0  0  0  0  0  0  0  0  0  0
  -11.9020   14.8200   68.0810 C   0  0  0  0  0  0  0  0  0  0  0  0
  -12.6830   13.9110   70.3030 C   0  0  0  0  0  0  0  0  0  0  0  0
  -11.8660   12.7600   70.1960 O   0  0  0  0  0  0  0  0  0  0  0  0
  -12.2520   11.6370   70.8610 C   0  0  0  0  0  0  0  0  0  0  0  0
  -11.7680   10.5530   70.6030 O   0  0  0  0  0  0  0  0  0  0  0  0
  -13.1940   11.8120   71.8210 O   0  0  0  0  0  0  0  0  0  0  0  0
  -13.5060   13.0740   72.4060 C   0  0  0  0  0  0  0  0  0  0  0  0
  -12.8010   14.2030   71.7460 C   0  0  0  0  0  0  0  0  0  0  0  0
  -12.3130   15.3290   72.3130 C   0  0  0  0  0  0  0  0  0  0  0  0
  -11.6390   16.2690   71.5410 O   0  0  0  0  0  0  0  0  0  0  0  0
  -14.8790   13.3470   72.2070 O   0  0  0  0  0  0  0  0  0  0  0  0
   -9.6980   17.9690   67.4380 C   0  0  0  0  0  0  0  0  0  0  0  0
  -10.2630   18.8120   66.4730 C   0  0  0  0  0  0  0  0  0  0  0  0
   -9.5520   19.7730   65.8770 N   0  0  0  0  0  0  0  0  0  0  0  0
  -10.1590   20.5790   64.9830 F   0  0  0  0  0  0  0  0  0  0  0  0
   -8.2740   19.9600   66.1240 N   0  0  0  0  0  0  0  0  0  0  0  0
   -7.6510   19.1850   67.0120 C   0  0  0  0  0  0  0  0  0  0  0  0
   -8.3170   18.1570   67.7170 C   0  0  0  0  0  0  0  0  0  0  0  0
   -6.2940   19.4130   67.2520 C   0  0  0  0  0  0  0  0  0  0  0  0
   -7.5500   17.4050   68.6450 C   0  0  0  0  0  0  0  0  0  0  0  0
   -6.1810   17.6490   68.8430 C   0  0  0  0  0  0  0  0  0  0  0  0
   -5.3920   16.7780   69.7190 C   0  0  0  0  0  0  0  0  0  0  0  0
   -5.5510   18.6740   68.1710 C   0  0  0  0  0  0  0  0  0  0  0  0
   -5.9180   15.8110   70.2480 O   0  0  0  0  0  0  0  0  0  0  0  0
   -3.9250   17.1300   69.8890 C   0  0  0  0  0  0  0  0  0  0  0  0
   -3.1620   16.2710   70.2900 O   0  0  0  0  0  0  0  0  0  0  0  0
   -3.6320   18.5770   69.5800 C   0  0  0  0  0  0  0  0  0  0  0  0
   -4.2310   18.9740   68.3250 O   0  0  0  0  0  0  0  0  0  0  0  0
   -5.6810   20.3940   66.5720 F   0  0  0  0  0  0  0  0  0  0  0  0
   -2.1430   18.9250   69.5980 C   0  0  0  0  0  0  0  0  0  0  0  0
   -1.5350   18.7700   70.7830 F   0  0  0  0  0  0  0  0  0  0  0  0
   -1.4600   18.1760   68.6980 F   0  0  0  0  0  0  0  0  0  0  0  0
   -1.9840   20.2200   69.2270 F   0  0  0  0  0  0  0  0  0  0  0  0
  -10.9640   15.7970   66.0110 O   0  0  0  0  0  0  0  0  0  0  0  0
  -10.5840   14.5110   65.4840 C   0  0  0  0  0  0  0  0  0  0  0  0
  -10.1280   13.6670   66.5300 O   0  0  0  0  0  0  0  0  0  0  0  0
   -9.7030   12.4220   66.0970 C   0  0  0  0  0  0  0  0  0  0  0  0
   -8.6540   11.8340   66.6810 C   0  0  0  0  0  0  0  0  0  0  0  0
  -10.4100   11.6960   64.9970 C   0  0  0  0  0  0  0  0  0  0  0  0
   -7.9290   12.4360   67.6810 O   0  0  0  0  0  0  0  0  0  0  0  0
  -11.5130   12.5020   64.3280 C   0  0  0  0  0  0  0  0  0  0  0  0
  -10.1120   10.5750   64.6260 O   0  0  0  0  0  0  0  0  0  0  0  0
  -11.8050   13.8900   64.8430 C   0  0  0  0  0  0  0  0  0  0  0  0
  -12.1010   12.0900   63.3430 O   0  0  0  0  0  0  0  0  0  0  0  0
  -12.9010   14.4250   64.7500 O   0  0  0  0  0  0  0  0  0  0  0  0
  -12.4240   15.6290   73.7580 C   0  0  0  0  0  0  0  0  0  0  0  0
  -12.1020   16.9300   74.2650 O   0  0  0  0  0  0  0  0  0  0  0  0
  -13.4720   16.4850   74.2460 O   0  0  0  0  0  0  0  0  0  0  0  0
  1 39  1  0  0  0  0
  1  2  2  0  0  0  0
  1  6  1  0  0  0  0
  2  3  1  0  0  0  0
  2 17  1  0  0  0  0
  3  4  1  0  0  0  0
  4  5  2  0  0  0  0
  4 15  1  0  0  0  0
  5  6  1  0  0  0  0
  5  7  1  0  0  0  0
  7  8  1  0  0  0  0
  7 13  1  0  0  0  0
  8  9  1  0  0  0  0
  9 10  2  0  0  0  0
  9 11  1  0  0  0  0
 11 12  1  0  0  0  0
 12 13  1  0  0  0  0
 12 16  1  0  0  0  0
 13 14  2  0  0  0  0
 14 15  1  0  0  0  0
 14 51  1  0  0  0  0
 17 18  2  0  0  0  0
 17 23  1  0  0  0  0
 18 19  1  0  0  0  0
 19 20  1  0  0  0  0
 19 21  2  0  0  0  0
 21 22  1  0  0  0  0
 22 23  2  0  0  0  0
 22 24  1  0  0  0  0
 23 25  1  0  0  0  0
 24 28  2  0  0  0  0
 24 34  1  0  0  0  0
 25 26  2  0  0  0  0
 26 27  1  0  0  0  0
 26 28  1  0  0  0  0
 27 29  2  0  0  0  0
 27 30  1  0  0  0  0
 28 33  1  0  0  0  0
 30 31  2  0  0  0  0
 30 32  1  0  0  0  0
 32 33  1  0  0  0  0
 32 35  1  0  0  0  0
 35 36  1  0  0  0  0
 35 37  1  0  0  0  0
 35 38  1  0  0  0  0
 39 40  1  0  0  0  0
 40 41  1  0  0  0  0
 40 48  1  0  0  0  0
 41 42  1  0  0  0  0
 42 43  2  0  0  0  0
 42 44  1  0  0  0  0
 43 45  1  0  0  0  0
 44 46  1  0  0  0  0
 44 47  2  0  0  0  0
 46 48  1  0  0  0  0
 46 49  2  0  0  0  0
 48 50  2  0  0  0  0
 51 52  1  0  0  0  0
 51 53  1  0  0  0  0
 52 53  1  0  0  0  0
M  CHG  2  15   1  19   1
M  END