
 OpenBabel11262000053D

 54 62  0  0  1  0  0  0  0  0999 V2000
  -10.9140   15.8100   67.0350 C   0  0  0  0  0  0  0  0  0  0  0  0
  -10.7580   16.9420   67.7510 C   0  0  0  0  0  0  0  0  0  0  0  0
  -11.1590   17.0610   69.0850 O   0  0  0  0  0  0  0  0  0  0  0  0
  -11.7170   15.9610   69.7420 C   0  0  0  0  0  0  0  0  0  0  0  0
  -11.8840   14.7780   69.1120 C   0  0  0  0  0  0  0  0  0  0  0  0
  -11.4880   14.5700   67.6750 C   0  0  0  0  0  0  0  0  0  0  0  0
  -12.5230   13.5940   69.7960 C   0  0  0  0  0  0  0  0  0  0  0  0
  -11.5950   12.5260   69.8380 O   0  0  0  0  0  0  0  0  0  0  0  0
  -11.9700   11.4450   70.5630 C   0  0  0  0  0  0  0  0  0  0  0  0
  -11.3300   10.3490   70.4290 N   0  0  0  0  0  0  0  0  0  0  0  0
  -13.0090   11.5450   71.4210 O   0  0  0  0  0  0  0  0  0  0  0  0
  -13.4640   12.7400   71.8370 C   0  0  0  0  0  0  0  0  0  0  0  0
  -14.3360   12.8910   72.6790 O   0  0  0  0  0  0  0  0  0  0  0  0
  -12.8670   13.9040   71.1910 C   0  0  0  0  0  0  0  0  0  0  0  0
  -12.6710   15.0980   71.7850 C   0  0  0  0  0  0  0  0  0  0  0  0
  -12.0940   16.1310   71.0590 O   0  0  0  0  0  0  0  0  0  0  0  0
  -10.0370   18.1270   67.2180 C   0  0  0  0  0  0  0  0  0  0  0  0
  -10.7400   18.7950   66.2800 N   0  0  0  0  0  0  0  0  0  0  0  0
  -10.1390   19.8410   65.7030 C   0  0  0  0  0  0  0  0  0  0  0  0
  -10.8280   20.5210   64.7820 F   0  0  0  0  0  0  0  0  0  0  0  0
   -8.8460   20.2080   65.9650 C   0  0  0  0  0  0  0  0  0  0  0  0
   -8.1280   19.4550   66.8920 C   0  0  0  0  0  0  0  0  0  0  0  0
   -8.7370   18.3990   67.5480 N   0  0  0  0  0  0  0  0  0  0  0  0
   -6.7700   19.7360   67.1560 C   0  0  0  0  0  0  0  0  0  0  0  0
   -8.0280   17.6810   68.4600 C   0  0  0  0  0  0  0  0  0  0  0  0
   -6.6830   17.9520   68.7070 C   0  0  0  0  0  0  0  0  0  0  0  0
   -5.9570   17.1340   69.6660 C   0  0  0  0  0  0  0  0  0  0  0  0
   -6.0400   18.9910   68.0720 C   0  0  0  0  0  0  0  0  0  0  0  0
   -6.5070   16.1620   70.1540 O   0  0  0  0  0  0  0  0  0  0  0  0
   -4.5280   17.5300   69.9600 C   0  0  0  0  0  0  0  0  0  0  0  0
   -3.7510   16.7050   70.4100 O   0  0  0  0  0  0  0  0  0  0  0  0
   -4.2020   18.9700   69.6150 C   0  0  0  0  0  0  0  0  0  0  0  0
   -4.7540   19.3610   68.3350 O   0  0  0  0  0  0  0  0  0  0  0  0
   -6.1750   20.7510   66.5160 F   0  0  0  0  0  0  0  0  0  0  0  0
   -4.5610   19.9160   70.7390 C   0  0  0  0  0  0  0  0  0  0  0  0
   -5.5320   20.9260   70.4270 O   0  0  0  0  0  0  0  0  0  0  0  0
   -4.6510   19.3470   72.0510 O   0  0  0  0  0  0  0  0  0  0  0  0
   -3.6700   20.2400   71.8490 C   0  0  0  0  0  0  0  0  0  0  0  0
   -2.4620   20.1630   71.9380 O   0  0  0  0  0  0  0  0  0  0  0  0
  -10.4560   15.7380   65.7270 O   0  0  0  0  0  0  0  0  0  0  0  0
  -10.3300   14.4250   65.1380 C   0  0  0  0  0  0  0  0  0  0  0  0
  -10.1390   13.4650   66.1670 O   0  0  0  0  0  0  0  0  0  0  0  0
   -9.9450   12.1880   65.6740 C   0  0  0  0  0  0  0  0  0  0  0  0
   -9.1940   11.3100   66.3500 C   0  0  0  0  0  0  0  0  0  0  0  0
  -10.5910   11.7530   64.3920 C   0  0  0  0  0  0  0  0  0  0  0  0
   -8.5580   11.6270   67.5250 O   0  0  0  0  0  0  0  0  0  0  0  0
  -11.6510   12.6670   63.8170 C   0  0  0  0  0  0  0  0  0  0  0  0
  -10.2640   10.6980   63.8530 O   0  0  0  0  0  0  0  0  0  0  0  0
  -11.6040   14.0730   64.3740 C   0  0  0  0  0  0  0  0  0  0  0  0
  -12.8910   12.1220   63.9830 F   0  0  0  0  0  0  0  0  0  0  0  0
  -12.5020   14.8960   64.1920 O   0  0  0  0  0  0  0  0  0  0  0  0
  -13.0310   15.4370   73.1850 C   0  0  0  0  0  0  0  0  0  0  0  0
  -12.1480   15.0510   74.2590 O   0  0  0  0  0  0  0  0  0  0  0  0
  -12.2960   16.4370   73.9040 O   0  0  0  0  0  0  0  0  0  0  0  0
  1 40  1  0  0  0  0
  1  2  2  0  0  0  0
  1  6  1  0  0  0  0
  2  3  1  0  0  0  0
  2 17  1  0  0  0  0
  3  4  1  0  0  0  0
  4  5  2  0  0  0  0
  4 16  1  0  0  0  0
  5  6  1  0  0  0  0
  5  7  1  0  0  0  0
  7  8  1  0  0  0  0
  7 14  1  0  0  0  0
  8  9  1  0  0  0  0
  9 10  2  0  0  0  0
  9 11  1  0  0  0  0
 11 12  1  0  0  0  0
 12 13  2  0  0  0  0
 12 14  1  0  0  0  0
 14 15  2  0  0  0  0
 15 16  1  0  0  0  0
 15 52  1  0  0  0  0
 17 18  2  0  0  0  0
 17 23  1  0  0  0  0
 18 19  1  0  0  0  0
 19 20  1  0  0  0  0
 19 21  2  0  0  0  0
 21 22  1  0  0  0  0
 22 23  2  0  0  0  0
 22 24  1  0  0  0  0
 23 25  1  0  0  0  0
 24 28  2  0  0  0  0
 24 34  1  0  0  0  0
 25 26  2  0  0  0  0
 26 27  1  0  0  0  0
 26 28  1  0  0  0  0
 27 29  2  0  0  0  0
 27 30  1  0  0  0  0
 28 33  1  0  0  0  0
 30 31  2  0  0  0  0
 30 32  1  0  0  0  0
 32 33  1  0  0  0  0
 32 35  1  0  0  0  0
 35 36  1  0  0  0  0
 35 37  1  0  0  0  0
 35 38  1  0  0  0  0
 37 38  1  0  0  0  0
 38 39  2  0  0  0  0
 40 41  1  0  0  0  0
 41 42  1  0  0  0  0
 41 49  1  0  0  0  0
 42 43  1  0  0  0  0
 43 44  2  0  0  0  0
 43 45  1  0  0  0  0
 44 46  1  0  0  0  0
 45 47  1  0  0  0  0
 45 48  2  0  0  0  0
 47 49  1  0  0  0  0
 47 50  1  0  0  0  0
 49 51  2  0  0  0  0
 52 53  1  0  0  0  0
 52 54  1  0  0  0  0
 53 54  1  0  0  0  0
M  CHG  2  16   1  23   1
M  END