
 OpenBabel11232023093D

 54 62  0  0  1  0  0  0  0  0999 V2000
   -9.5910   15.0220   67.3380 C   0  0  0  0  0  0  0  0  0  0  0  0
   -9.7540   16.1770   68.0260 C   0  0  0  0  0  0  0  0  0  0  0  0
  -10.3460   16.1610   69.3070 O   0  0  0  0  0  0  0  0  0  0  0  0
  -11.0970   15.0430   69.6970 C   0  0  0  0  0  0  0  0  0  0  0  0
  -10.8490   13.8340   69.1400 C   0  0  0  0  0  0  0  0  0  0  0  0
   -9.8040   13.7020   68.0620 C   0  0  0  0  0  0  0  0  0  0  0  0
  -11.6510   12.5990   69.4820 C   0  0  0  0  0  0  0  0  0  0  0  0
  -10.8230   11.4950   69.7880 O   0  0  0  0  0  0  0  0  0  0  0  0
  -11.5210   10.3280   69.9950 C   0  0  0  0  0  0  0  0  0  0  0  0
  -11.0510    9.2300   69.7810 O   0  0  0  0  0  0  0  0  0  0  0  0
  -12.7800   10.5230   70.5020 O   0  0  0  0  0  0  0  0  0  0  0  0
  -12.8480   11.5990   71.4280 C   0  0  0  0  0  0  0  0  0  0  0  0
  -12.4520   12.8450   70.7010 C   0  0  0  0  0  0  0  0  0  0  0  0
  -12.6800   14.0760   71.1710 C   0  0  0  0  0  0  0  0  0  0  0  0
  -12.0890   15.2130   70.6620 O   0  0  0  0  0  0  0  0  0  0  0  0
  -13.5630   14.0490   72.3410 C   0  0  0  0  0  0  0  0  0  0  0  0
  -14.2020   13.0330   72.8000 O   0  0  0  0  0  0  0  0  0  0  0  0
  -14.1520   11.7870   72.0420 O   0  0  0  0  0  0  0  0  0  0  0  0
  -13.6140   15.2460   72.9250 O   0  0  0  0  0  0  0  0  0  0  0  0
   -9.2980   17.5330   67.5400 C   0  0  0  0  0  0  0  0  0  0  0  0
  -10.1020   18.2310   66.6310 C   0  0  0  0  0  0  0  0  0  0  0  0
   -9.7200   19.4010   66.1070 N   0  0  0  0  0  0  0  0  0  0  0  0
  -10.5420   20.0350   65.2480 F   0  0  0  0  0  0  0  0  0  0  0  0
   -8.5530   19.9500   66.3730 N   0  0  0  0  0  0  0  0  0  0  0  0
   -7.7040   19.3390   67.2000 C   0  0  0  0  0  0  0  0  0  0  0  0
   -8.0380   18.1220   67.8350 C   0  0  0  0  0  0  0  0  0  0  0  0
   -6.4430   19.9080   67.4280 C   0  0  0  0  0  0  0  0  0  0  0  0
   -7.0740   17.5690   68.7040 C   0  0  0  0  0  0  0  0  0  0  0  0
   -5.8030   18.1320   68.8650 C   0  0  0  0  0  0  0  0  0  0  0  0
   -4.7950   17.3930   69.6250 C   0  0  0  0  0  0  0  0  0  0  0  0
   -5.4780   19.3200   68.2490 C   0  0  0  0  0  0  0  0  0  0  0  0
   -5.0410   16.2450   69.9840 O   0  0  0  0  0  0  0  0  0  0  0  0
   -3.4630   18.0830   69.8440 C   0  0  0  0  0  0  0  0  0  0  0  0
   -2.5280   17.4490   70.3070 O   0  0  0  0  0  0  0  0  0  0  0  0
   -3.4530   19.5630   69.5000 C   0  0  0  0  0  0  0  0  0  0  0  0
   -4.2620   19.9270   68.3670 O   0  0  0  0  0  0  0  0  0  0  0  0
   -6.1440   21.0610   66.8110 F   0  0  0  0  0  0  0  0  0  0  0  0
   -3.8470   20.3780   70.6890 C   0  0  0  0  0  0  0  0  0  0  0  0
   -4.9350   21.3240   70.4920 O   0  0  0  0  0  0  0  0  0  0  0  0
   -3.8460   19.6870   71.9280 O   0  0  0  0  0  0  0  0  0  0  0  0
   -2.9450   20.6860   71.8070 C   0  0  0  0  0  0  0  0  0  0  0  0
   -2.8630   21.7330   72.4110 O   0  0  0  0  0  0  0  0  0  0  0  0
   -9.2260   15.0340   65.9990 O   0  0  0  0  0  0  0  0  0  0  0  0
   -9.9710   14.2640   65.0220 C   0  0  0  0  0  0  0  0  0  0  0  0
   -9.9230   12.8860   65.3830 O   0  0  0  0  0  0  0  0  0  0  0  0
  -10.5100   12.0590   64.4320 C   0  0  0  0  0  0  0  0  0  0  0  0
   -9.8880   10.9640   63.9810 C   0  0  0  0  0  0  0  0  0  0  0  0
  -11.8710   12.3890   63.9270 C   0  0  0  0  0  0  0  0  0  0  0  0
   -8.6230   10.6220   64.3860 O   0  0  0  0  0  0  0  0  0  0  0  0
  -12.3820   13.6690   64.5460 C   0  0  0  0  0  0  0  0  0  0  0  0
  -12.5000   11.7800   63.0880 O   0  0  0  0  0  0  0  0  0  0  0  0
  -11.3940   14.7840   64.7590 C   0  0  0  0  0  0  0  0  0  0  0  0
  -13.4770   13.7580   65.0810 O   0  0  0  0  0  0  0  0  0  0  0  0
  -11.7670   15.9430   64.9060 O   0  0  0  0  0  0  0  0  0  0  0  0
  1 43  1  0  0  0  0
  1  2  2  0  0  0  0
  1  6  1  0  0  0  0
  2  3  1  0  0  0  0
  2 20  1  0  0  0  0
  3  4  1  0  0  0  0
  4  5  2  0  0  0  0
  4 15  1  0  0  0  0
  5  6  1  0  0  0  0
  5  7  1  0  0  0  0
  7  8  1  0  0  0  0
  7 13  1  0  0  0  0
  8  9  1  0  0  0  0
  9 10  2  0  0  0  0
  9 11  1  0  0  0  0
 11 12  1  0  0  0  0
 12 13  1  0  0  0  0
 12 18  1  0  0  0  0
 13 14  2  0  0  0  0
 14 15  1  0  0  0  0
 14 16  1  0  0  0  0
 16 17  2  0  0  0  0
 16 19  1  0  0  0  0
 17 18  1  0  0  0  0
 20 21  2  0  0  0  0
 20 26  1  0  0  0  0
 21 22  1  0  0  0  0
 22 23  1  0  0  0  0
 22 24  2  0  0  0  0
 24 25  1  0  0  0  0
 25 26  2  0  0  0  0
 25 27  1  0  0  0  0
 26 28  1  0  0  0  0
 27 31  2  0  0  0  0
 27 37  1  0  0  0  0
 28 29  2  0  0  0  0
 29 30  1  0  0  0  0
 29 31  1  0  0  0  0
 30 32  2  0  0  0  0
 30 33  1  0  0  0  0
 31 36  1  0  0  0  0
 33 34  2  0  0  0  0
 33 35  1  0  0  0  0
 35 36  1  0  0  0  0
 35 38  1  0  0  0  0
 38 39  1  0  0  0  0
 38 40  1  0  0  0  0
 38 41  1  0  0  0  0
 40 41  1  0  0  0  0
 41 42  2  0  0  0  0
 43 44  1  0  0  0  0
 44 45  1  0  0  0  0
 44 52  1  0  0  0  0
 45 46  1  0  0  0  0
 46 47  2  0  0  0  0
 46 48  1  0  0  0  0
 47 49  1  0  0  0  0
 48 50  1  0  0  0  0
 48 51  2  0  0  0  0
 50 52  1  0  0  0  0
 50 53  2  0  0  0  0
 52 54  2  0  0  0  0
M  CHG  3  15   1  17   1  22   1
M  END