
 OpenBabel11232014483D

 54 62  0  0  1  0  0  0  0  0999 V2000
  -10.5830   15.7320   67.3100 C   0  0  0  0  0  0  0  0  0  0  0  0
  -10.4190   16.8920   67.9990 C   0  0  0  0  0  0  0  0  0  0  0  0
  -10.8350   17.0010   69.3400 O   0  0  0  0  0  0  0  0  0  0  0  0
  -11.5700   15.9700   69.9410 C   0  0  0  0  0  0  0  0  0  0  0  0
  -11.6260   14.7540   69.3780 C   0  0  0  0  0  0  0  0  0  0  0  0
  -10.9850   14.4680   68.0430 C   0  0  0  0  0  0  0  0  0  0  0  0
  -12.4050   13.6410   69.9920 C   0  0  0  0  0  0  0  0  0  0  0  0
  -11.6020   12.4770   70.0470 O   0  0  0  0  0  0  0  0  0  0  0  0
  -12.3160   11.3550   70.3620 C   0  0  0  0  0  0  0  0  0  0  0  0
  -11.9850   10.2340   70.0410 O   0  0  0  0  0  0  0  0  0  0  0  0
  -13.4300   11.6420   71.1040 O   0  0  0  0  0  0  0  0  0  0  0  0
  -13.1700   12.6350   72.0590 C   0  0  0  0  0  0  0  0  0  0  0  0
  -12.8180   13.9520   71.4150 C   0  0  0  0  0  0  0  0  0  0  0  0
  -12.8120   15.2170   71.9360 C   0  0  0  0  0  0  0  0  0  0  0  0
  -12.2280   16.2550   71.1340 O   0  0  0  0  0  0  0  0  0  0  0  0
  -14.3490   12.8860   72.8200 O   0  0  0  0  0  0  0  0  0  0  0  0
   -9.7440   18.1180   67.4160 C   0  0  0  0  0  0  0  0  0  0  0  0
  -10.4440   18.8480   66.4440 C   0  0  0  0  0  0  0  0  0  0  0  0
   -9.9320   19.9430   65.8770 N   0  0  0  0  0  0  0  0  0  0  0  0
  -10.6590   20.6120   64.9610 F   0  0  0  0  0  0  0  0  0  0  0  0
   -8.7390   20.3940   66.1760 N   0  0  0  0  0  0  0  0  0  0  0  0
   -7.9780   19.7480   67.0570 C   0  0  0  0  0  0  0  0  0  0  0  0
   -8.4230   18.5730   67.7080 C   0  0  0  0  0  0  0  0  0  0  0  0
   -6.6970   20.2540   67.3360 C   0  0  0  0  0  0  0  0  0  0  0  0
   -7.4980   17.9480   68.5820 C   0  0  0  0  0  0  0  0  0  0  0  0
   -6.1990   18.4510   68.7890 C   0  0  0  0  0  0  0  0  0  0  0  0
   -5.2320   17.6540   69.5470 C   0  0  0  0  0  0  0  0  0  0  0  0
   -5.8010   19.6350   68.2080 C   0  0  0  0  0  0  0  0  0  0  0  0
   -5.5490   16.5380   69.9470 O   0  0  0  0  0  0  0  0  0  0  0  0
   -3.8330   18.2290   69.6720 C   0  0  0  0  0  0  0  0  0  0  0  0
   -2.9020   17.4860   69.9400 O   0  0  0  0  0  0  0  0  0  0  0  0
   -3.7430   19.7290   69.4500 C   0  0  0  0  0  0  0  0  0  0  0  0
   -4.5850   20.2300   68.3930 O   0  0  0  0  0  0  0  0  0  0  0  0
   -6.3180   21.4110   66.6970 O   0  0  0  0  0  0  0  0  0  0  0  0
   -4.0130   20.4600   70.7270 C   0  0  0  0  0  0  0  0  0  0  0  0
   -5.1680   21.3430   70.7290 O   0  0  0  0  0  0  0  0  0  0  0  0
   -3.8350   19.6850   71.9040 O   0  0  0  0  0  0  0  0  0  0  0  0
   -3.0030   20.7390   71.7600 C   0  0  0  0  0  0  0  0  0  0  0  0
   -2.9020   21.7420   72.4270 O   0  0  0  0  0  0  0  0  0  0  0  0
  -10.3530   15.6830   65.9380 O   0  0  0  0  0  0  0  0  0  0  0  0
  -10.2760   14.4290   65.2040 C   0  0  0  0  0  0  0  0  0  0  0  0
   -9.8860   13.3930   66.0920 O   0  0  0  0  0  0  0  0  0  0  0  0
   -9.7100   12.1560   65.4920 C   0  0  0  0  0  0  0  0  0  0  0  0
   -8.6970   11.3440   65.8240 C   0  0  0  0  0  0  0  0  0  0  0  0
  -10.7030   11.6320   64.5140 C   0  0  0  0  0  0  0  0  0  0  0  0
   -7.7120   11.6950   66.7100 O   0  0  0  0  0  0  0  0  0  0  0  0
  -11.6480   12.6750   63.9650 C   0  0  0  0  0  0  0  0  0  0  0  0
  -10.8080   10.4610   64.2010 O   0  0  0  0  0  0  0  0  0  0  0  0
  -11.5270   14.1160   64.3790 C   0  0  0  0  0  0  0  0  0  0  0  0
  -12.5980   12.3650   63.2630 O   0  0  0  0  0  0  0  0  0  0  0  0
  -12.4430   14.9100   64.1790 O   0  0  0  0  0  0  0  0  0  0  0  0
  -13.3160   15.6040   73.3260 C   0  0  0  0  0  0  0  0  0  0  0  0
  -12.6040   16.5200   74.2920 N   0  0  0  0  0  0  0  0  0  0  0  0
  -12.4140   15.4620   74.5410 N   0  0  0  0  0  0  0  0  0  0  0  0
  1 40  1  0  0  0  0
  1  2  2  0  0  0  0
  1  6  1  0  0  0  0
  2  3  1  0  0  0  0
  2 17  1  0  0  0  0
  3  4  1  0  0  0  0
  4  5  2  0  0  0  0
  4 15  1  0  0  0  0
  5  6  1  0  0  0  0
  5  7  1  0  0  0  0
  7  8  1  0  0  0  0
  7 13  1  0  0  0  0
  8  9  1  0  0  0  0
  9 10  2  0  0  0  0
  9 11  1  0  0  0  0
 11 12  1  0  0  0  0
 12 13  1  0  0  0  0
 12 16  1  0  0  0  0
 13 14  2  0  0  0  0
 14 15  1  0  0  0  0
 14 52  1  0  0  0  0
 17 18  2  0  0  0  0
 17 23  1  0  0  0  0
 18 19  1  0  0  0  0
 19 20  1  0  0  0  0
 19 21  2  0  0  0  0
 21 22  1  0  0  0  0
 22 23  2  0  0  0  0
 22 24  1  0  0  0  0
 23 25  1  0  0  0  0
 24 28  2  0  0  0  0
 24 34  1  0  0  0  0
 25 26  2  0  0  0  0
 26 27  1  0  0  0  0
 26 28  1  0  0  0  0
 27 29  2  0  0  0  0
 27 30  1  0  0  0  0
 28 33  1  0  0  0  0
 30 31  2  0  0  0  0
 30 32  1  0  0  0  0
 32 33  1  0  0  0  0
 32 35  1  0  0  0  0
 35 36  1  0  0  0  0
 35 37  1  0  0  0  0
 35 38  1  0  0  0  0
 37 38  1  0  0  0  0
 38 39  2  0  0  0  0
 40 41  1  0  0  0  0
 41 42  1  0  0  0  0
 41 49  1  0  0  0  0
 42 43  1  0  0  0  0
 43 44  2  0  0  0  0
 43 45  1  0  0  0  0
 44 46  1  0  0  0  0
 45 47  1  0  0  0  0
 45 48  2  0  0  0  0
 47 49  1  0  0  0  0
 47 50  2  0  0  0  0
 49 51  2  0  0  0  0
 52 53  1  0  0  0  0
 52 54  1  0  0  0  0
 53 54  3  0  0  0  0
M  CHG  4  15   1  53   1  54   1  19   1
M  END