
 OpenBabel10242017303D

 51 58  0  0  1  0  0  0  0  0999 V2000
  -10.3120   15.5950   67.4850 C   0  0  0  0  0  0  0  0  0  0  0  0
  -10.3620   16.8450   68.0140 C   0  0  0  0  0  0  0  0  0  0  0  0
  -11.0710   17.1110   69.1910 O   0  0  0  0  0  0  0  0  0  0  0  0
  -11.5240   16.0650   69.9770 C   0  0  0  0  0  0  0  0  0  0  0  0
  -11.5100   14.8060   69.5260 C   0  0  0  0  0  0  0  0  0  0  0  0
  -10.9730   14.4370   68.1900 C   0  0  0  0  0  0  0  0  0  0  0  0
  -12.0760   13.7340   70.3840 C   0  0  0  0  0  0  0  0  0  0  0  0
  -12.1520   12.5300   69.9220 N   0  0  0  0  0  0  0  0  0  0  0  0
  -12.7180   11.5470   70.7020 C   0  0  0  0  0  0  0  0  0  0  0  0
  -12.9040   10.4490   70.1960 O   0  0  0  0  0  0  0  0  0  0  0  0
  -13.0750   11.7450   72.0180 N   0  0  0  0  0  0  0  0  0  0  0  0
  -13.0120   12.9380   72.5090 C   0  0  0  0  0  0  0  0  0  0  0  0
  -12.5490   14.1040   71.7410 C   0  0  0  0  0  0  0  0  0  0  0  0
  -12.4940   15.4040   72.0980 C   0  0  0  0  0  0  0  0  0  0  0  0
  -11.9820   16.3740   71.2370 N   0  0  0  0  0  0  0  0  0  0  0  0
   -9.7210   18.0520   67.4020 C   0  0  0  0  0  0  0  0  0  0  0  0
  -10.5550   18.7940   66.6380 N   0  0  0  0  0  0  0  0  0  0  0  0
  -10.0500   19.8920   66.0740 C   0  0  0  0  0  0  0  0  0  0  0  0
   -8.8060   20.3510   66.2330 N   0  0  0  0  0  0  0  0  0  0  0  0
   -7.9910   19.6360   67.0060 C   0  0  0  0  0  0  0  0  0  0  0  0
   -8.3720   18.4370   67.6260 C   0  0  0  0  0  0  0  0  0  0  0  0
   -6.7050   20.1320   67.1980 C   0  0  0  0  0  0  0  0  0  0  0  0
   -7.3870   17.7560   68.3970 C   0  0  0  0  0  0  0  0  0  0  0  0
   -6.1080   18.2930   68.6150 C   0  0  0  0  0  0  0  0  0  0  0  0
   -5.7630   19.4980   68.0170 C   0  0  0  0  0  0  0  0  0  0  0  0
   -5.1910   17.5720   69.5270 C   0  0  0  0  0  0  0  0  0  0  0  0
   -4.1910   20.2970   68.2480 S   0  0  0  0  0  0  0  0  0  0  0  0
   -3.7600   19.6980   69.9030 C   0  0  0  0  0  0  0  0  0  0  0  0
   -3.8770   18.2030   69.9670 C   0  0  0  0  0  0  0  0  0  0  0  0
   -2.9900   17.4880   70.4260 O   0  0  0  0  0  0  0  0  0  0  0  0
   -5.5010   16.4650   69.9560 O   0  0  0  0  0  0  0  0  0  0  0  0
   -4.5380   20.3710   70.9870 C   0  0  0  0  0  0  0  0  0  0  0  0
   -5.9800   20.4200   70.8300 O   0  0  0  0  0  0  0  0  0  0  0  0
   -4.0810   20.0620   72.2990 O   0  0  0  0  0  0  0  0  0  0  0  0
   -3.9660   21.3360   71.9140 C   0  0  0  0  0  0  0  0  0  0  0  0
   -4.4680   22.3400   72.4030 O   0  0  0  0  0  0  0  0  0  0  0  0
   -9.5630   15.3000   66.3540 O   0  0  0  0  0  0  0  0  0  0  0  0
  -10.0780   14.3040   65.4520 C   0  0  0  0  0  0  0  0  0  0  0  0
  -10.2810   13.0570   66.1130 O   0  0  0  0  0  0  0  0  0  0  0  0
  -11.0590   12.1090   65.4780 C   0  0  0  0  0  0  0  0  0  0  0  0
  -10.8490   10.7980   65.6520 C   0  0  0  0  0  0  0  0  0  0  0  0
  -12.2000   12.4830   64.6010 C   0  0  0  0  0  0  0  0  0  0  0  0
   -9.8250   10.2940   66.4090 O   0  0  0  0  0  0  0  0  0  0  0  0
  -12.0800   13.8660   64.0250 C   0  0  0  0  0  0  0  0  0  0  0  0
  -13.1470   11.7600   64.3430 O   0  0  0  0  0  0  0  0  0  0  0  0
  -11.3260   14.8930   64.8080 C   0  0  0  0  0  0  0  0  0  0  0  0
  -12.4860   14.1140   62.9020 O   0  0  0  0  0  0  0  0  0  0  0  0
  -11.7000   16.0560   64.8250 O   0  0  0  0  0  0  0  0  0  0  0  0
  -13.0010   15.8460   73.4340 C   0  0  0  0  0  0  0  0  0  0  0  0
  -12.3860   15.7390   74.4800 O   0  0  0  0  0  0  0  0  0  0  0  0
  -14.2590   16.3350   73.3720 O   0  0  0  0  0  0  0  0  0  0  0  0
  1 37  1  0  0  0  0
  1  2  2  0  0  0  0
  1  6  1  0  0  0  0
  2  3  1  0  0  0  0
  2 16  1  0  0  0  0
  3  4  1  0  0  0  0
  4  5  2  0  0  0  0
  4 15  1  0  0  0  0
  5  6  1  0  0  0  0
  5  7  1  0  0  0  0
  7  8  2  0  0  0  0
  7 13  1  0  0  0  0
  8  9  1  0  0  0  0
  9 10  2  0  0  0  0
  9 11  1  0  0  0  0
 11 12  2  0  0  0  0
 12 13  1  0  0  0  0
 13 14  2  0  0  0  0
 14 15  1  0  0  0  0
 14 49  1  0  0  0  0
 16 17  2  0  0  0  0
 16 21  1  0  0  0  0
 17 18  1  0  0  0  0
 18 19  2  0  0  0  0
 19 20  1  0  0  0  0
 20 21  2  0  0  0  0
 20 22  1  0  0  0  0
 21 23  1  0  0  0  0
 22 25  2  0  0  0  0
 23 24  2  0  0  0  0
 24 25  1  0  0  0  0
 24 26  1  0  0  0  0
 25 27  1  0  0  0  0
 26 29  1  0  0  0  0
 26 31  2  0  0  0  0
 27 28  1  0  0  0  0
 28 29  1  0  0  0  0
 28 32  1  0  0  0  0
 29 30  2  0  0  0  0
 32 33  1  0  0  0  0
 32 34  1  0  0  0  0
 32 35  1  0  0  0  0
 34 35  1  0  0  0  0
 35 36  2  0  0  0  0
 37 38  1  0  0  0  0
 38 39  1  0  0  0  0
 38 46  1  0  0  0  0
 39 40  1  0  0  0  0
 40 41  2  0  0  0  0
 40 42  1  0  0  0  0
 41 43  1  0  0  0  0
 42 44  1  0  0  0  0
 42 45  2  0  0  0  0
 44 46  1  0  0  0  0
 44 47  2  0  0  0  0
 46 48  2  0  0  0  0
 49 50  2  0  0  0  0
 49 51  1  0  0  0  0
M  END
