
 OpenBabel10192022343D

 51 59  0  0  1  0  0  0  0  0999 V2000
   -8.4020   10.5750   67.2710 O   0  0  0  0  0  0  0  0  0  0  0  0
   -9.0860   11.2870   66.6430 C   0  0  0  0  0  0  0  0  0  0  0  0
   -9.8420   12.1080   65.9720 C   0  0  0  0  0  0  0  0  0  0  0  0
   -9.9940   13.3840   66.4740 O   0  0  0  0  0  0  0  0  0  0  0  0
  -10.3310   14.3650   65.4840 C   0  0  0  0  0  0  0  0  0  0  0  0
  -11.6710   14.0250   64.8440 C   0  0  0  0  0  0  0  0  0  0  0  0
  -12.5830   14.8040   64.6130 O   0  0  0  0  0  0  0  0  0  0  0  0
  -11.7750   12.5670   64.4560 C   0  0  0  0  0  0  0  0  0  0  0  0
  -12.7510   12.1520   63.8490 O   0  0  0  0  0  0  0  0  0  0  0  0
  -10.6710   11.6130   64.8560 C   0  0  0  0  0  0  0  0  0  0  0  0
  -10.4990   10.5490   64.2870 O   0  0  0  0  0  0  0  0  0  0  0  0
  -10.3810   15.6770   66.0630 O   0  0  0  0  0  0  0  0  0  0  0  0
  -10.7190   15.7590   67.4100 C   0  0  0  0  0  0  0  0  0  0  0  0
  -10.5600   16.9070   68.1080 C   0  0  0  0  0  0  0  0  0  0  0  0
  -10.9260   17.0460   69.4440 O   0  0  0  0  0  0  0  0  0  0  0  0
  -11.4830   15.9720   70.1130 C   0  0  0  0  0  0  0  0  0  0  0  0
  -11.5920   14.7670   69.5340 C   0  0  0  0  0  0  0  0  0  0  0  0
  -11.9400   16.2000   71.3840 N   0  0  0  0  0  0  0  0  0  0  0  0
  -11.1910   14.5100   68.1240 C   0  0  0  0  0  0  0  0  0  0  0  0
  -12.1890   13.6610   70.3310 C   0  0  0  0  0  0  0  0  0  0  0  0
  -12.2750   12.4700   69.8350 N   0  0  0  0  0  0  0  0  0  0  0  0
  -12.6910   13.9860   71.6840 C   0  0  0  0  0  0  0  0  0  0  0  0
  -12.8320   11.4650   70.6020 C   0  0  0  0  0  0  0  0  0  0  0  0
  -12.8260   10.3290   70.1460 O   0  0  0  0  0  0  0  0  0  0  0  0
  -13.3980   11.6790   71.8440 N   0  0  0  0  0  0  0  0  0  0  0  0
  -13.3250   12.8560   72.3620 C   0  0  0  0  0  0  0  0  0  0  0  0
  -12.5660   15.2400   72.1650 C   0  0  0  0  0  0  0  0  0  0  0  0
   -9.9420   18.1270   67.5600 C   0  0  0  0  0  0  0  0  0  0  0  0
  -10.7150   18.7700   66.6580 N   0  0  0  0  0  0  0  0  0  0  0  0
  -10.1800   19.8550   66.0930 C   0  0  0  0  0  0  0  0  0  0  0  0
   -8.9640   20.3570   66.3490 N   0  0  0  0  0  0  0  0  0  0  0  0
   -8.2090   19.7020   67.2330 C   0  0  0  0  0  0  0  0  0  0  0  0
   -8.6400   18.5350   67.8830 C   0  0  0  0  0  0  0  0  0  0  0  0
   -6.9390   20.1950   67.5090 C   0  0  0  0  0  0  0  0  0  0  0  0
   -7.7600   17.8550   68.7570 C   0  0  0  0  0  0  0  0  0  0  0  0
   -6.4760   18.3540   68.9780 C   0  0  0  0  0  0  0  0  0  0  0  0
   -6.0740   19.5470   68.3920 C   0  0  0  0  0  0  0  0  0  0  0  0
   -5.5270   17.6130   69.8160 C   0  0  0  0  0  0  0  0  0  0  0  0
   -4.8680   20.1530   68.6160 O   0  0  0  0  0  0  0  0  0  0  0  0
   -4.1250   19.7050   69.7620 C   0  0  0  0  0  0  0  0  0  0  0  0
   -4.1440   18.2080   69.9210 C   0  0  0  0  0  0  0  0  0  0  0  0
   -3.1670   17.5060   70.1340 O   0  0  0  0  0  0  0  0  0  0  0  0
   -5.8310   16.5870   70.3990 O   0  0  0  0  0  0  0  0  0  0  0  0
   -4.5940   20.3990   71.0130 C   0  0  0  0  0  0  0  0  0  0  0  0
   -5.9990   20.7280   71.1040 O   0  0  0  0  0  0  0  0  0  0  0  0
   -4.0500   19.9060   72.2400 O   0  0  0  0  0  0  0  0  0  0  0  0
   -3.6590   21.1330   71.8530 C   0  0  0  0  0  0  0  0  0  0  0  0
   -2.5450   21.5720   71.6560 O   0  0  0  0  0  0  0  0  0  0  0  0
  -13.0590   15.6990   73.4850 C   0  0  0  0  0  0  0  0  0  0  0  0
  -12.3050   15.4850   74.6870 O   0  0  0  0  0  0  0  0  0  0  0  0
  -12.4690   16.8210   74.1690 O   0  0  0  0  0  0  0  0  0  0  0  0
  1  2  2  0  0  0  0
  2  3  2  0  0  0  0
  3  4  1  0  0  0  0
  3 10  1  0  0  0  0
  4  5  1  0  0  0  0
  5 12  1  0  0  0  0
  5  6  1  0  0  0  0
  6  7  2  0  0  0  0
  6  8  1  0  0  0  0
  8  9  2  0  0  0  0
  8 10  1  0  0  0  0
 10 11  2  0  0  0  0
 12 13  1  0  0  0  0
 13 14  2  0  0  0  0
 13 19  1  0  0  0  0
 14 15  1  0  0  0  0
 14 28  1  0  0  0  0
 15 16  1  0  0  0  0
 16 17  2  0  0  0  0
 16 18  1  0  0  0  0
 17 19  1  0  0  0  0
 17 20  1  0  0  0  0
 18 27  1  0  0  0  0
 20 21  2  0  0  0  0
 20 22  1  0  0  0  0
 21 23  1  0  0  0  0
 22 26  1  0  0  0  0
 22 27  2  0  0  0  0
 23 24  2  0  0  0  0
 23 25  1  0  0  0  0
 25 26  2  0  0  0  0
 27 49  1  0  0  0  0
 28 29  2  0  0  0  0
 28 33  1  0  0  0  0
 29 30  1  0  0  0  0
 30 31  2  0  0  0  0
 31 32  1  0  0  0  0
 32 33  2  0  0  0  0
 32 34  1  0  0  0  0
 33 35  1  0  0  0  0
 34 37  2  0  0  0  0
 35 36  2  0  0  0  0
 36 37  1  0  0  0  0
 36 38  1  0  0  0  0
 37 39  1  0  0  0  0
 38 41  1  0  0  0  0
 38 43  2  0  0  0  0
 39 40  1  0  0  0  0
 40 41  1  0  0  0  0
 40 44  1  0  0  0  0
 41 42  2  0  0  0  0
 44 45  1  0  0  0  0
 44 46  1  0  0  0  0
 44 47  1  0  0  0  0
 46 47  1  0  0  0  0
 47 48  2  0  0  0  0
 49 50  1  0  0  0  0
 49 51  1  0  0  0  0
 50 51  1  0  0  0  0
M  END
