
 OpenBabel11152013543D

 53 61  0  0  1  0  0  0  0  0999 V2000
  -11.1820   15.8800   67.3040 C   0  0  0  0  0  0  0  0  0  0  0  0
  -10.7000   16.9130   68.0230 C   0  0  0  0  0  0  0  0  0  0  0  0
  -10.8330   17.0210   69.3970 O   0  0  0  0  0  0  0  0  0  0  0  0
  -11.4900   16.0150   70.0860 C   0  0  0  0  0  0  0  0  0  0  0  0
  -11.9860   14.9260   69.4720 C   0  0  0  0  0  0  0  0  0  0  0  0
  -11.8860   14.7340   67.9930 C   0  0  0  0  0  0  0  0  0  0  0  0
  -12.7050   13.8570   70.2650 C   0  0  0  0  0  0  0  0  0  0  0  0
  -12.0070   12.6320   70.0540 O   0  0  0  0  0  0  0  0  0  0  0  0
  -12.2570   11.5480   70.8320 C   0  0  0  0  0  0  0  0  0  0  0  0
  -11.8230   10.4450   70.5300 O   0  0  0  0  0  0  0  0  0  0  0  0
  -12.9850   11.7380   71.9580 O   0  0  0  0  0  0  0  0  0  0  0  0
  -13.4170   13.0070   72.4280 C   0  0  0  0  0  0  0  0  0  0  0  0
  -12.7510   14.1210   71.7270 C   0  0  0  0  0  0  0  0  0  0  0  0
  -12.2290   15.2410   72.2730 C   0  0  0  0  0  0  0  0  0  0  0  0
  -11.6240   16.1690   71.4390 N   0  0  0  0  0  0  0  0  0  0  0  0
  -14.8090   13.1310   72.1920 O   0  0  0  0  0  0  0  0  0  0  0  0
   -9.9470   18.0090   67.4030 C   0  0  0  0  0  0  0  0  0  0  0  0
  -10.6330   18.6860   66.4670 N   0  0  0  0  0  0  0  0  0  0  0  0
  -10.0470   19.7140   65.9090 N   0  0  0  0  0  0  0  0  0  0  0  0
  -10.7400   20.3940   64.8950 N   0  0  0  0  0  0  0  0  0  0  0  0
   -8.8490   20.1460   66.2290 N   0  0  0  0  0  0  0  0  0  0  0  0
   -8.1480   19.4810   67.1450 C   0  0  0  0  0  0  0  0  0  0  0  0
   -8.6480   18.3450   67.7790 C   0  0  0  0  0  0  0  0  0  0  0  0
   -6.8760   19.9310   67.4890 C   0  0  0  0  0  0  0  0  0  0  0  0
   -7.8400   17.6430   68.7110 C   0  0  0  0  0  0  0  0  0  0  0  0
   -6.5530   18.0990   69.0100 C   0  0  0  0  0  0  0  0  0  0  0  0
   -6.0820   19.2670   68.4290 C   0  0  0  0  0  0  0  0  0  0  0  0
   -5.6770   17.3360   69.9090 C   0  0  0  0  0  0  0  0  0  0  0  0
   -4.8680   19.8360   68.7010 O   0  0  0  0  0  0  0  0  0  0  0  0
   -4.2040   19.3970   69.8960 C   0  0  0  0  0  0  0  0  0  0  0  0
   -4.2970   17.9080   70.1340 C   0  0  0  0  0  0  0  0  0  0  0  0
   -3.3640   17.1990   70.4810 O   0  0  0  0  0  0  0  0  0  0  0  0
   -6.0340   16.2840   70.4120 O   0  0  0  0  0  0  0  0  0  0  0  0
   -4.6950   20.1610   71.0880 C   0  0  0  0  0  0  0  0  0  0  0  0
   -6.1340   20.2990   71.2320 O   0  0  0  0  0  0  0  0  0  0  0  0
   -3.9760   19.9200   72.2940 O   0  0  0  0  0  0  0  0  0  0  0  0
   -3.9000   21.1750   71.7950 C   0  0  0  0  0  0  0  0  0  0  0  0
   -4.2640   22.2190   72.2670 O   0  0  0  0  0  0  0  0  0  0  0  0
  -10.9640   15.8180   65.9350 O   0  0  0  0  0  0  0  0  0  0  0  0
  -10.6910   14.5160   65.3900 C   0  0  0  0  0  0  0  0  0  0  0  0
  -10.5410   13.5530   66.4300 O   0  0  0  0  0  0  0  0  0  0  0  0
  -10.1740   12.3060   65.9580 C   0  0  0  0  0  0  0  0  0  0  0  0
   -9.3040   11.5430   66.6300 C   0  0  0  0  0  0  0  0  0  0  0  0
  -10.7710   11.7740   64.7000 C   0  0  0  0  0  0  0  0  0  0  0  0
   -8.7040   11.9580   67.7900 O   0  0  0  0  0  0  0  0  0  0  0  0
  -11.8530   12.6700   64.1280 C   0  0  0  0  0  0  0  0  0  0  0  0
  -10.4140   10.7500   64.1460 O   0  0  0  0  0  0  0  0  0  0  0  0
  -11.8680   14.1320   64.5110 C   0  0  0  0  0  0  0  0  0  0  0  0
  -12.7160   12.2160   63.3950 O   0  0  0  0  0  0  0  0  0  0  0  0
  -12.7470   14.8930   64.1280 O   0  0  0  0  0  0  0  0  0  0  0  0
  -12.2530   15.5670   73.7160 C   0  0  0  0  0  0  0  0  0  0  0  0
  -12.1150   16.9180   74.1820 O   0  0  0  0  0  0  0  0  0  0  0  0
  -13.3750   16.2310   74.3250 O   0  0  0  0  0  0  0  0  0  0  0  0
  1 39  1  0  0  0  0
  1  2  2  0  0  0  0
  1  6  1  0  0  0  0
  2  3  1  0  0  0  0
  2 17  1  0  0  0  0
  3  4  1  0  0  0  0
  4  5  2  0  0  0  0
  4 15  1  0  0  0  0
  5  6  1  0  0  0  0
  5  7  1  0  0  0  0
  7  8  1  0  0  0  0
  7 13  1  0  0  0  0
  8  9  1  0  0  0  0
  9 10  2  0  0  0  0
  9 11  1  0  0  0  0
 11 12  1  0  0  0  0
 12 13  1  0  0  0  0
 12 16  1  0  0  0  0
 13 14  2  0  0  0  0
 14 15  1  0  0  0  0
 14 51  1  0  0  0  0
 17 18  2  0  0  0  0
 17 23  1  0  0  0  0
 18 19  1  0  0  0  0
 19 20  1  0  0  0  0
 19 21  2  0  0  0  0
 21 22  1  0  0  0  0
 22 23  2  0  0  0  0
 22 24  1  0  0  0  0
 23 25  1  0  0  0  0
 24 27  2  0  0  0  0
 25 26  2  0  0  0  0
 26 27  1  0  0  0  0
 26 28  1  0  0  0  0
 27 29  1  0  0  0  0
 28 31  1  0  0  0  0
 28 33  2  0  0  0  0
 29 30  1  0  0  0  0
 30 31  1  0  0  0  0
 30 34  1  0  0  0  0
 31 32  2  0  0  0  0
 34 35  1  0  0  0  0
 34 36  1  0  0  0  0
 34 37  1  0  0  0  0
 36 37  1  0  0  0  0
 37 38  2  0  0  0  0
 39 40  1  0  0  0  0
 40 41  1  0  0  0  0
 40 48  1  0  0  0  0
 41 42  1  0  0  0  0
 42 43  2  0  0  0  0
 42 44  1  0  0  0  0
 43 45  1  0  0  0  0
 44 46  1  0  0  0  0
 44 47  2  0  0  0  0
 46 48  1  0  0  0  0
 46 49  2  0  0  0  0
 48 50  2  0  0  0  0
 51 52  1  0  0  0  0
 51 53  1  0  0  0  0
 52 53  1  0  0  0  0
M  CHG  1  19   1
M  END