
 OpenBabel09222018573D

 52 60  0  0  1  0  0  0  0  0999 V2000
   -9.7910   15.4740   67.5810 C   0  0  0  0  0  0  0  0  0  0  0  0
   -9.9800   16.6490   68.2250 C   0  0  0  0  0  0  0  0  0  0  0  0
  -10.5490   16.7510   69.5030 O   0  0  0  0  0  0  0  0  0  0  0  0
  -11.1310   15.6350   70.0780 C   0  0  0  0  0  0  0  0  0  0  0  0
  -11.0120   14.3900   69.5020 C   0  0  0  0  0  0  0  0  0  0  0  0
  -10.2340   14.2070   68.2490 C   0  0  0  0  0  0  0  0  0  0  0  0
  -11.6270   13.3060   70.1320 C   0  0  0  0  0  0  0  0  0  0  0  0
  -11.5070   12.0190   69.5940 N   0  0  0  0  0  0  0  0  0  0  0  0
  -12.1950   10.9340   70.0250 C   0  0  0  0  0  0  0  0  0  0  0  0
  -12.0950    9.8530   69.4520 O   0  0  0  0  0  0  0  0  0  0  0  0
  -13.0140   11.1140   71.0890 N   0  0  0  0  0  0  0  0  0  0  0  0
  -13.0270   12.2970   71.9220 C   0  0  0  0  0  0  0  0  0  0  0  0
  -12.3700   13.4870   71.2870 C   0  0  0  0  0  0  0  0  0  0  0  0
  -12.4420   14.7800   71.8300 C   0  0  0  0  0  0  0  0  0  0  0  0
  -11.8100   15.8390   71.2290 N   0  0  0  0  0  0  0  0  0  0  0  0
   -9.6050   17.9690   67.6620 C   0  0  0  0  0  0  0  0  0  0  0  0
  -10.5790   18.5700   66.9320 N   0  0  0  0  0  0  0  0  0  0  0  0
  -10.3490   19.8270   66.4990 C   0  0  0  0  0  0  0  0  0  0  0  0
   -9.2070   20.5510   66.7930 C   0  0  0  0  0  0  0  0  0  0  0  0
   -8.2010   19.9430   67.5490 C   0  0  0  0  0  0  0  0  0  0  0  0
   -8.3700   18.6000   67.9650 C   0  0  0  0  0  0  0  0  0  0  0  0
   -7.0380   20.6570   67.9050 C   0  0  0  0  0  0  0  0  0  0  0  0
   -7.2950   17.9860   68.6450 C   0  0  0  0  0  0  0  0  0  0  0  0
   -6.1230   18.6970   68.9320 C   0  0  0  0  0  0  0  0  0  0  0  0
   -6.0120   20.0470   68.6260 C   0  0  0  0  0  0  0  0  0  0  0  0
   -4.9710   18.0010   69.5140 C   0  0  0  0  0  0  0  0  0  0  0  0
   -4.9530   20.8400   68.9660 O   0  0  0  0  0  0  0  0  0  0  0  0
   -3.9990   20.3010   69.8960 C   0  0  0  0  0  0  0  0  0  0  0  0
   -3.7300   18.8300   69.7290 C   0  0  0  0  0  0  0  0  0  0  0  0
   -2.6260   18.3070   69.8010 O   0  0  0  0  0  0  0  0  0  0  0  0
   -4.9940   16.8110   69.7860 O   0  0  0  0  0  0  0  0  0  0  0  0
   -4.3770   20.6240   71.3180 C   0  0  0  0  0  0  0  0  0  0  0  0
   -5.7770   20.8460   71.5930 O   0  0  0  0  0  0  0  0  0  0  0  0
   -3.7170   19.8570   72.3290 O   0  0  0  0  0  0  0  0  0  0  0  0
   -3.3990   21.1560   72.2460 C   0  0  0  0  0  0  0  0  0  0  0  0
   -2.3110   21.6890   72.0880 O   0  0  0  0  0  0  0  0  0  0  0  0
   -9.2740   15.4070   66.2860 O   0  0  0  0  0  0  0  0  0  0  0  0
   -9.8300   14.4580   65.3470 C   0  0  0  0  0  0  0  0  0  0  0  0
  -10.3160   13.2750   65.9900 O   0  0  0  0  0  0  0  0  0  0  0  0
  -10.7390   12.2830   65.1300 C   0  0  0  0  0  0  0  0  0  0  0  0
  -10.4610   10.9940   65.3540 C   0  0  0  0  0  0  0  0  0  0  0  0
  -11.5940   12.6300   63.9720 C   0  0  0  0  0  0  0  0  0  0  0  0
   -9.6750   10.5780   66.3970 O   0  0  0  0  0  0  0  0  0  0  0  0
  -11.9330   14.0990   63.9290 C   0  0  0  0  0  0  0  0  0  0  0  0
  -11.9700   11.8450   63.1210 O   0  0  0  0  0  0  0  0  0  0  0  0
  -10.9910   15.1010   64.5730 C   0  0  0  0  0  0  0  0  0  0  0  0
  -12.9740   14.4600   63.4000 O   0  0  0  0  0  0  0  0  0  0  0  0
  -11.1800   16.2990   64.4120 O   0  0  0  0  0  0  0  0  0  0  0  0
  -13.2720   15.1390   73.1280 C   0  0  0  0  0  0  0  0  0  0  0  0
  -12.6810   14.7260   74.3740 O   0  0  0  0  0  0  0  0  0  0  0  0
  -12.5540   16.0930   74.7750 C   0  0  0  0  0  0  0  0  0  0  0  0
  -13.2350   16.4970   73.5920 O   0  0  0  0  0  0  0  0  0  0  0  0
  1 37  1  0  0  0  0
  1  2  2  0  0  0  0
  1  6  1  0  0  0  0
  2  3  1  0  0  0  0
  2 16  1  0  0  0  0
  3  4  1  0  0  0  0
  4  5  2  0  0  0  0
  4 15  1  0  0  0  0
  5  6  1  0  0  0  0
  5  7  1  0  0  0  0
  7  8  1  0  0  0  0
  7 13  2  0  0  0  0
  8  9  1  0  0  0  0
  9 10  2  0  0  0  0
  9 11  1  0  0  0  0
 11 12  1  0  0  0  0
 12 13  1  0  0  0  0
 13 14  1  0  0  0  0
 14 15  2  0  0  0  0
 14 49  1  0  0  0  0
 16 17  2  0  0  0  0
 16 21  1  0  0  0  0
 17 18  1  0  0  0  0
 18 19  2  0  0  0  0
 19 20  1  0  0  0  0
 20 21  2  0  0  0  0
 20 22  1  0  0  0  0
 21 23  1  0  0  0  0
 22 25  2  0  0  0  0
 23 24  2  0  0  0  0
 24 25  1  0  0  0  0
 24 26  1  0  0  0  0
 25 27  1  0  0  0  0
 26 29  1  0  0  0  0
 26 31  2  0  0  0  0
 27 28  1  0  0  0  0
 28 29  1  0  0  0  0
 28 32  1  0  0  0  0
 29 30  2  0  0  0  0
 32 33  1  0  0  0  0
 32 34  1  0  0  0  0
 32 35  1  0  0  0  0
 34 35  1  0  0  0  0
 35 36  2  0  0  0  0
 37 38  1  0  0  0  0
 38 39  1  0  0  0  0
 38 46  1  0  0  0  0
 39 40  1  0  0  0  0
 40 41  2  0  0  0  0
 40 42  1  0  0  0  0
 41 43  1  0  0  0  0
 42 44  1  0  0  0  0
 42 45  2  0  0  0  0
 44 46  1  0  0  0  0
 44 47  2  0  0  0  0
 46 48  2  0  0  0  0
 49 50  1  0  0  0  0
 49 52  1  0  0  0  0
 50 51  1  0  0  0  0
 51 52  1  0  0  0  0
M  END
