
 OpenBabel09252009373D

 51 59  0  0  1  0  0  0  0  0999 V2000
  -10.8400   15.6300   67.1580 C   0  0  0  0  0  0  0  0  0  0  0  0
  -10.7880   16.7980   67.8350 C   0  0  0  0  0  0  0  0  0  0  0  0
  -11.3310   16.9780   69.1020 O   0  0  0  0  0  0  0  0  0  0  0  0
  -11.8090   15.8770   69.7940 C   0  0  0  0  0  0  0  0  0  0  0  0
  -11.8140   14.6530   69.2440 C   0  0  0  0  0  0  0  0  0  0  0  0
  -11.3910   14.3940   67.8370 C   0  0  0  0  0  0  0  0  0  0  0  0
  -12.2380   13.5080   70.0970 C   0  0  0  0  0  0  0  0  0  0  0  0
  -12.2130   12.3020   69.6350 N   0  0  0  0  0  0  0  0  0  0  0  0
  -12.5840   11.2580   70.4630 C   0  0  0  0  0  0  0  0  0  0  0  0
  -12.5310   10.1240   70.0080 O   0  0  0  0  0  0  0  0  0  0  0  0
  -13.0130   11.4330   71.7640 N   0  0  0  0  0  0  0  0  0  0  0  0
  -13.0520   12.6240   72.2500 C   0  0  0  0  0  0  0  0  0  0  0  0
  -12.6720   13.8080   71.4790 C   0  0  0  0  0  0  0  0  0  0  0  0
  -12.6920   15.0830   71.9180 C   0  0  0  0  0  0  0  0  0  0  0  0
  -12.2710   16.0970   71.0670 N   0  0  0  0  0  0  0  0  0  0  0  0
  -10.0670   17.9770   67.3380 C   0  0  0  0  0  0  0  0  0  0  0  0
  -10.7700   18.7020   66.4430 N   0  0  0  0  0  0  0  0  0  0  0  0
  -10.1580   19.7680   65.9200 C   0  0  0  0  0  0  0  0  0  0  0  0
   -8.9060   20.1500   66.2010 N   0  0  0  0  0  0  0  0  0  0  0  0
   -8.2270   19.4200   67.0750 C   0  0  0  0  0  0  0  0  0  0  0  0
   -8.7550   18.2950   67.7070 C   0  0  0  0  0  0  0  0  0  0  0  0
   -6.9320   19.7980   67.3690 C   0  0  0  0  0  0  0  0  0  0  0  0
   -7.9480   17.5800   68.6140 C   0  0  0  0  0  0  0  0  0  0  0  0
   -6.6790   17.9780   68.8700 N   0  0  0  0  0  0  0  0  0  0  0  0
   -6.1760   19.0820   68.2860 C   0  0  0  0  0  0  0  0  0  0  0  0
   -5.8230   17.2350   69.7360 C   0  0  0  0  0  0  0  0  0  0  0  0
   -4.8960   19.5560   68.5040 O   0  0  0  0  0  0  0  0  0  0  0  0
   -4.2630   19.1660   69.7360 C   0  0  0  0  0  0  0  0  0  0  0  0
   -4.4050   17.6910   69.9610 C   0  0  0  0  0  0  0  0  0  0  0  0
   -3.5110   16.9090   70.2260 O   0  0  0  0  0  0  0  0  0  0  0  0
   -6.2710   16.2300   70.2600 O   0  0  0  0  0  0  0  0  0  0  0  0
   -4.7940   19.9700   70.8880 C   0  0  0  0  0  0  0  0  0  0  0  0
   -5.9820   20.7500   70.6250 O   0  0  0  0  0  0  0  0  0  0  0  0
   -4.7950   19.3200   72.1510 O   0  0  0  0  0  0  0  0  0  0  0  0
   -3.9230   20.3370   72.0080 C   0  0  0  0  0  0  0  0  0  0  0  0
   -2.7140   20.3520   72.0770 O   0  0  0  0  0  0  0  0  0  0  0  0
  -10.2980   15.5260   65.8820 O   0  0  0  0  0  0  0  0  0  0  0  0
  -10.1820   14.2030   65.3480 C   0  0  0  0  0  0  0  0  0  0  0  0
   -9.9700   13.2550   66.4000 O   0  0  0  0  0  0  0  0  0  0  0  0
   -9.7010   11.9740   65.9420 C   0  0  0  0  0  0  0  0  0  0  0  0
   -8.8200   11.2010   66.5830 C   0  0  0  0  0  0  0  0  0  0  0  0
  -10.4060   11.4200   64.7450 C   0  0  0  0  0  0  0  0  0  0  0  0
   -8.1290   11.6330   67.6870 O   0  0  0  0  0  0  0  0  0  0  0  0
  -11.3720   12.3980   64.0960 C   0  0  0  0  0  0  0  0  0  0  0  0
  -10.2370   10.2930   64.3150 O   0  0  0  0  0  0  0  0  0  0  0  0
  -11.4760   13.7880   64.6750 C   0  0  0  0  0  0  0  0  0  0  0  0
  -12.0420   12.0850   63.1280 O   0  0  0  0  0  0  0  0  0  0  0  0
  -12.5260   14.4090   64.6680 O   0  0  0  0  0  0  0  0  0  0  0  0
  -13.1300   15.5050   73.2690 C   0  0  0  0  0  0  0  0  0  0  0  0
  -12.3070   15.2970   74.4260 O   0  0  0  0  0  0  0  0  0  0  0  0
  -12.5360   16.6340   73.9370 O   0  0  0  0  0  0  0  0  0  0  0  0
  1 37  1  0  0  0  0
  1  2  2  0  0  0  0
  1  6  1  0  0  0  0
  2  3  1  0  0  0  0
  2 16  1  0  0  0  0
  3  4  1  0  0  0  0
  4  5  2  0  0  0  0
  4 15  1  0  0  0  0
  5  6  1  0  0  0  0
  5  7  1  0  0  0  0
  7  8  2  0  0  0  0
  7 13  1  0  0  0  0
  8  9  1  0  0  0  0
  9 10  2  0  0  0  0
  9 11  1  0  0  0  0
 11 12  2  0  0  0  0
 12 13  1  0  0  0  0
 13 14  2  0  0  0  0
 14 15  1  0  0  0  0
 14 49  1  0  0  0  0
 16 17  2  0  0  0  0
 16 21  1  0  0  0  0
 17 18  1  0  0  0  0
 18 19  2  0  0  0  0
 19 20  1  0  0  0  0
 20 21  2  0  0  0  0
 20 22  1  0  0  0  0
 21 23  1  0  0  0  0
 22 25  2  0  0  0  0
 23 24  2  0  0  0  0
 24 25  1  0  0  0  0
 24 26  1  0  0  0  0
 25 27  1  0  0  0  0
 26 29  1  0  0  0  0
 26 31  2  0  0  0  0
 27 28  1  0  0  0  0
 28 29  1  0  0  0  0
 28 32  1  0  0  0  0
 29 30  2  0  0  0  0
 32 33  1  0  0  0  0
 32 34  1  0  0  0  0
 32 35  1  0  0  0  0
 34 35  1  0  0  0  0
 35 36  2  0  0  0  0
 37 38  1  0  0  0  0
 38 39  1  0  0  0  0
 38 46  1  0  0  0  0
 39 40  1  0  0  0  0
 40 41  2  0  0  0  0
 40 42  1  0  0  0  0
 41 43  1  0  0  0  0
 42 44  1  0  0  0  0
 42 45  2  0  0  0  0
 44 46  1  0  0  0  0
 44 47  2  0  0  0  0
 46 48  2  0  0  0  0
 49 50  1  0  0  0  0
 49 51  1  0  0  0  0
 50 51  1  0  0  0  0
M  CHG  1  24   1
M  END