
 OpenBabel11252003113D

 54 63  0  0  1  0  0  0  0  0999 V2000
  -10.7090   15.5800   66.8820 C   0  0  0  0  0  0  0  0  0  0  0  0
  -10.3830   16.6810   67.6020 C   0  0  0  0  0  0  0  0  0  0  0  0
  -10.6000   16.7330   68.9910 O   0  0  0  0  0  0  0  0  0  0  0  0
  -11.2810   15.7030   69.6470 C   0  0  0  0  0  0  0  0  0  0  0  0
  -11.6370   14.5800   68.9970 C   0  0  0  0  0  0  0  0  0  0  0  0
  -11.3370   14.3770   67.5490 C   0  0  0  0  0  0  0  0  0  0  0  0
  -12.4000   13.4660   69.6670 C   0  0  0  0  0  0  0  0  0  0  0  0
  -11.6490   12.2800   69.5530 O   0  0  0  0  0  0  0  0  0  0  0  0
  -12.2300   11.1700   70.0910 C   0  0  0  0  0  0  0  0  0  0  0  0
  -11.9680   10.0610   69.6560 O   0  0  0  0  0  0  0  0  0  0  0  0
  -13.0880   11.3730   71.1240 O   0  0  0  0  0  0  0  0  0  0  0  0
  -13.1770   12.5550   71.7580 C   0  0  0  0  0  0  0  0  0  0  0  0
  -13.7910   12.7050   72.8040 O   0  0  0  0  0  0  0  0  0  0  0  0
  -12.5710   13.7140   71.1030 C   0  0  0  0  0  0  0  0  0  0  0  0
  -12.2110   14.8620   71.7190 C   0  0  0  0  0  0  0  0  0  0  0  0
  -11.5920   15.8740   70.9800 O   0  0  0  0  0  0  0  0  0  0  0  0
   -9.7730   17.9290   67.0080 C   0  0  0  0  0  0  0  0  0  0  0  0
  -10.5580   18.7630   66.2030 C   0  0  0  0  0  0  0  0  0  0  0  0
  -10.0690   19.8990   65.6900 N   0  0  0  0  0  0  0  0  0  0  0  0
  -10.8680   20.6790   64.9370 F   0  0  0  0  0  0  0  0  0  0  0  0
   -8.8280   20.2920   65.8890 N   0  0  0  0  0  0  0  0  0  0  0  0
   -8.0070   19.5530   66.6340 C   0  0  0  0  0  0  0  0  0  0  0  0
   -8.4240   18.3400   67.2240 C   0  0  0  0  0  0  0  0  0  0  0  0
   -6.7000   20.0140   66.8460 C   0  0  0  0  0  0  0  0  0  0  0  0
   -7.4640   17.6510   68.0060 C   0  0  0  0  0  0  0  0  0  0  0  0
   -6.1620   18.1470   68.2000 C   0  0  0  0  0  0  0  0  0  0  0  0
   -5.7720   19.3400   67.6370 C   0  0  0  0  0  0  0  0  0  0  0  0
   -5.2290   17.4050   69.0450 C   0  0  0  0  0  0  0  0  0  0  0  0
   -4.5460   19.9150   67.8240 O   0  0  0  0  0  0  0  0  0  0  0  0
   -3.5650   19.2180   68.6370 C   0  0  0  0  0  0  0  0  0  0  0  0
   -4.0310   18.1620   69.5550 C   0  0  0  0  0  0  0  0  0  0  0  0
   -2.3220   18.9780   68.0310 O   0  0  0  0  0  0  0  0  0  0  0  0
   -2.3560   19.9780   69.1020 C   0  0  0  0  0  0  0  0  0  0  0  0
   -3.5540   17.9380   70.6530 O   0  0  0  0  0  0  0  0  0  0  0  0
   -2.5470   21.3930   68.7130 O   0  0  0  0  0  0  0  0  0  0  0  0
   -1.3200   20.9280   68.8120 C   0  0  0  0  0  0  0  0  0  0  0  0
   -0.3470   21.3080   69.4220 O   0  0  0  0  0  0  0  0  0  0  0  0
   -5.4690   16.2470   69.3440 O   0  0  0  0  0  0  0  0  0  0  0  0
   -6.3320   21.1690   66.2690 F   0  0  0  0  0  0  0  0  0  0  0  0
  -10.4280   15.4910   65.5220 O   0  0  0  0  0  0  0  0  0  0  0  0
  -10.4130   14.1740   64.9300 C   0  0  0  0  0  0  0  0  0  0  0  0
  -10.0940   13.2190   65.9320 O   0  0  0  0  0  0  0  0  0  0  0  0
   -9.9320   11.9370   65.4360 C   0  0  0  0  0  0  0  0  0  0  0  0
   -9.0890   11.0840   66.0280 C   0  0  0  0  0  0  0  0  0  0  0  0
  -10.7200   11.4730   64.2580 C   0  0  0  0  0  0  0  0  0  0  0  0
   -8.3450   11.4270   67.1290 O   0  0  0  0  0  0  0  0  0  0  0  0
  -11.8780   12.3980   63.9150 C   0  0  0  0  0  0  0  0  0  0  0  0
  -10.4330   10.5010   63.5860 O   0  0  0  0  0  0  0  0  0  0  0  0
  -11.7640   13.8580   64.3150 C   0  0  0  0  0  0  0  0  0  0  0  0
  -12.8760   11.9810   63.3610 O   0  0  0  0  0  0  0  0  0  0  0  0
  -12.6500   14.6790   64.1280 O   0  0  0  0  0  0  0  0  0  0  0  0
  -12.3600   15.1500   73.1630 C   0  0  0  0  0  0  0  0  0  0  0  0
  -13.3370   16.1430   73.5000 N   0  0  0  0  0  0  0  0  0  0  0  0
  -12.1470   16.4930   73.5680 N   0  0  0  0  0  0  0  0  0  0  0  0
  1 40  1  0  0  0  0
  1  2  2  0  0  0  0
  1  6  1  0  0  0  0
  2  3  1  0  0  0  0
  2 17  1  0  0  0  0
  3  4  1  0  0  0  0
  4  5  2  0  0  0  0
  4 16  1  0  0  0  0
  5  6  1  0  0  0  0
  5  7  1  0  0  0  0
  7  8  1  0  0  0  0
  7 14  1  0  0  0  0
  8  9  1  0  0  0  0
  9 10  2  0  0  0  0
  9 11  1  0  0  0  0
 11 12  1  0  0  0  0
 12 13  2  0  0  0  0
 12 14  1  0  0  0  0
 14 15  2  0  0  0  0
 15 16  1  0  0  0  0
 15 52  1  0  0  0  0
 17 18  2  0  0  0  0
 17 23  1  0  0  0  0
 18 19  1  0  0  0  0
 19 20  1  0  0  0  0
 19 21  2  0  0  0  0
 21 22  1  0  0  0  0
 22 23  2  0  0  0  0
 22 24  1  0  0  0  0
 23 25  1  0  0  0  0
 24 27  2  0  0  0  0
 24 39  1  0  0  0  0
 25 26  2  0  0  0  0
 26 27  1  0  0  0  0
 26 28  1  0  0  0  0
 27 29  1  0  0  0  0
 28 31  1  0  0  0  0
 28 38  2  0  0  0  0
 29 30  1  0  0  0  0
 30 31  1  0  0  0  0
 30 32  1  0  0  0  0
 30 33  1  0  0  0  0
 31 34  2  0  0  0  0
 32 33  1  0  0  0  0
 33 35  1  0  0  0  0
 33 36  1  0  0  0  0
 35 36  1  0  0  0  0
 36 37  2  0  0  0  0
 40 41  1  0  0  0  0
 41 42  1  0  0  0  0
 41 49  1  0  0  0  0
 42 43  1  0  0  0  0
 43 44  2  0  0  0  0
 43 45  1  0  0  0  0
 44 46  1  0  0  0  0
 45 47  1  0  0  0  0
 45 48  2  0  0  0  0
 47 49  1  0  0  0  0
 47 50  2  0  0  0  0
 49 51  2  0  0  0  0
 52 53  1  0  0  0  0
 52 54  1  0  0  0  0
 53 54  2  0  0  0  0
M  CHG  2  16   1  19   1
M  END