
 OpenBabel11242000403D

 53 62  0  0  1  0  0  0  0  0999 V2000
  -10.8460   15.4950   67.1880 C   0  0  0  0  0  0  0  0  0  0  0  0
  -10.2910   16.4950   67.9090 C   0  0  0  0  0  0  0  0  0  0  0  0
  -10.4820   16.6440   69.2780 O   0  0  0  0  0  0  0  0  0  0  0  0
  -11.2500   15.7130   69.9630 C   0  0  0  0  0  0  0  0  0  0  0  0
  -11.8270   14.6670   69.3500 C   0  0  0  0  0  0  0  0  0  0  0  0
  -11.6980   14.4500   67.8770 C   0  0  0  0  0  0  0  0  0  0  0  0
  -12.6910   13.7010   70.1290 C   0  0  0  0  0  0  0  0  0  0  0  0
  -12.1310   12.3650   69.9850 N   0  0  0  0  0  0  0  0  0  0  0  0
  -12.7230   11.3640   70.6830 C   0  0  0  0  0  0  0  0  0  0  0  0
  -12.8560   10.1760   70.2180 N   0  0  0  0  0  0  0  0  0  0  0  0
  -13.0970   11.6680   71.9430 N   0  0  0  0  0  0  0  0  0  0  0  0
  -13.5840   12.9700   72.3320 C   0  0  0  0  0  0  0  0  0  0  0  0
  -12.7820   13.9990   71.6000 C   0  0  0  0  0  0  0  0  0  0  0  0
  -12.1670   15.0750   72.1420 C   0  0  0  0  0  0  0  0  0  0  0  0
  -11.4240   15.9070   71.3090 N   0  0  0  0  0  0  0  0  0  0  0  0
   -9.6030   17.6450   67.2950 C   0  0  0  0  0  0  0  0  0  0  0  0
  -10.4260   18.4950   66.5670 C   0  0  0  0  0  0  0  0  0  0  0  0
   -9.9250   19.5660   65.9580 N   0  0  0  0  0  0  0  0  0  0  0  0
  -10.7560   20.3990   65.3030 F   0  0  0  0  0  0  0  0  0  0  0  0
   -8.6400   19.8520   65.9770 N   0  0  0  0  0  0  0  0  0  0  0  0
   -7.7800   19.0890   66.6620 C   0  0  0  0  0  0  0  0  0  0  0  0
   -8.2270   17.9620   67.3890 C   0  0  0  0  0  0  0  0  0  0  0  0
   -6.4050   19.4200   66.6730 C   0  0  0  0  0  0  0  0  0  0  0  0
   -7.2900   17.2500   68.1780 C   0  0  0  0  0  0  0  0  0  0  0  0
   -5.9390   17.6380   68.2290 C   0  0  0  0  0  0  0  0  0  0  0  0
   -5.4830   18.6890   67.4530 C   0  0  0  0  0  0  0  0  0  0  0  0
   -5.0100   16.9780   69.1540 C   0  0  0  0  0  0  0  0  0  0  0  0
   -4.1690   19.0720   67.3980 O   0  0  0  0  0  0  0  0  0  0  0  0
   -3.1960   18.4330   68.2520 C   0  0  0  0  0  0  0  0  0  0  0  0
   -3.6760   17.6390   69.3920 C   0  0  0  0  0  0  0  0  0  0  0  0
   -2.0160   17.9730   67.6410 O   0  0  0  0  0  0  0  0  0  0  0  0
   -1.9050   19.1720   68.4750 C   0  0  0  0  0  0  0  0  0  0  0  0
   -3.0890   17.5620   70.4580 O   0  0  0  0  0  0  0  0  0  0  0  0
   -2.0330   20.4810   67.7760 O   0  0  0  0  0  0  0  0  0  0  0  0
   -0.8360   19.9640   67.9350 C   0  0  0  0  0  0  0  0  0  0  0  0
    0.1870   20.4180   68.3930 O   0  0  0  0  0  0  0  0  0  0  0  0
   -5.3400   15.9770   69.7680 O   0  0  0  0  0  0  0  0  0  0  0  0
   -5.8060   20.8510   65.6540 P   0  0  0  0  0  0  0  0  0  0  0  0
  -10.6320   15.4040   65.8180 O   0  0  0  0  0  0  0  0  0  0  0  0
  -10.3810   14.1080   65.2400 C   0  0  0  0  0  0  0  0  0  0  0  0
   -9.9960   13.2040   66.2710 O   0  0  0  0  0  0  0  0  0  0  0  0
   -9.6760   11.9360   65.8170 C   0  0  0  0  0  0  0  0  0  0  0  0
   -8.7300   11.2110   66.4260 C   0  0  0  0  0  0  0  0  0  0  0  0
  -10.3950   11.3210   64.6620 C   0  0  0  0  0  0  0  0  0  0  0  0
   -8.0160   11.6730   67.5010 O   0  0  0  0  0  0  0  0  0  0  0  0
  -11.5250   12.1700   64.1120 C   0  0  0  0  0  0  0  0  0  0  0  0
  -10.0980   10.2450   64.1720 O   0  0  0  0  0  0  0  0  0  0  0  0
  -11.6370   13.6140   64.5440 C   0  0  0  0  0  0  0  0  0  0  0  0
  -12.3280   11.7020   63.3220 O   0  0  0  0  0  0  0  0  0  0  0  0
  -12.6300   14.2850   64.3050 O   0  0  0  0  0  0  0  0  0  0  0  0
  -12.2190   15.4300   73.5710 C   0  0  0  0  0  0  0  0  0  0  0  0
  -13.3260   16.1910   74.0350 N   0  0  0  0  0  0  0  0  0  0  0  0
  -12.2480   16.8050   73.9390 N   0  0  0  0  0  0  0  0  0  0  0  0
  1 39  1  0  0  0  0
  1  2  2  0  0  0  0
  1  6  1  0  0  0  0
  2  3  1  0  0  0  0
  2 16  1  0  0  0  0
  3  4  1  0  0  0  0
  4  5  2  0  0  0  0
  4 15  1  0  0  0  0
  5  6  1  0  0  0  0
  5  7  1  0  0  0  0
  7  8  1  0  0  0  0
  7 13  1  0  0  0  0
  8  9  1  0  0  0  0
  9 10  2  0  0  0  0
  9 11  1  0  0  0  0
 11 12  1  0  0  0  0
 12 13  1  0  0  0  0
 13 14  2  0  0  0  0
 14 15  1  0  0  0  0
 14 51  1  0  0  0  0
 16 17  2  0  0  0  0
 16 22  1  0  0  0  0
 17 18  1  0  0  0  0
 18 19  1  0  0  0  0
 18 20  2  0  0  0  0
 20 21  1  0  0  0  0
 21 22  2  0  0  0  0
 21 23  1  0  0  0  0
 22 24  1  0  0  0  0
 23 26  2  0  0  0  0
 23 38  1  0  0  0  0
 24 25  2  0  0  0  0
 25 26  1  0  0  0  0
 25 27  1  0  0  0  0
 26 28  1  0  0  0  0
 27 30  1  0  0  0  0
 27 37  2  0  0  0  0
 28 29  1  0  0  0  0
 29 30  1  0  0  0  0
 29 31  1  0  0  0  0
 29 32  1  0  0  0  0
 30 33  2  0  0  0  0
 31 32  1  0  0  0  0
 32 34  1  0  0  0  0
 32 35  1  0  0  0  0
 34 35  1  0  0  0  0
 35 36  2  0  0  0  0
 39 40  1  0  0  0  0
 40 41  1  0  0  0  0
 40 48  1  0  0  0  0
 41 42  1  0  0  0  0
 42 43  2  0  0  0  0
 42 44  1  0  0  0  0
 43 45  1  0  0  0  0
 44 46  1  0  0  0  0
 44 47  2  0  0  0  0
 46 48  1  0  0  0  0
 46 49  2  0  0  0  0
 48 50  2  0  0  0  0
 51 52  1  0  0  0  0
 51 53  1  0  0  0  0
 52 53  2  0  0  0  0
M  CHG  1  18   1
M  END