
 OpenBabel11212022153D

 54 62  0  0  1  0  0  0  0  0999 V2000
  -11.0930   15.7560   67.2000 C   0  0  0  0  0  0  0  0  0  0  0  0
  -10.7580   16.8450   67.9210 C   0  0  0  0  0  0  0  0  0  0  0  0
  -11.0660   16.9870   69.2710 O   0  0  0  0  0  0  0  0  0  0  0  0
  -11.6640   15.9310   69.9570 C   0  0  0  0  0  0  0  0  0  0  0  0
  -11.9990   14.7840   69.3330 C   0  0  0  0  0  0  0  0  0  0  0  0
  -11.8020   14.5940   67.8510 C   0  0  0  0  0  0  0  0  0  0  0  0
  -12.6080   13.6270   70.0800 C   0  0  0  0  0  0  0  0  0  0  0  0
  -11.7250   12.5220   69.9700 O   0  0  0  0  0  0  0  0  0  0  0  0
  -12.1420   11.3720   70.5770 C   0  0  0  0  0  0  0  0  0  0  0  0
  -11.6450   10.2910   70.3160 O   0  0  0  0  0  0  0  0  0  0  0  0
  -13.1750   11.5310   71.4420 O   0  0  0  0  0  0  0  0  0  0  0  0
  -13.1890   12.6920   72.2620 C   0  0  0  0  0  0  0  0  0  0  0  0
  -12.7170   13.9000   71.5330 C   0  0  0  0  0  0  0  0  0  0  0  0
  -12.3780   15.0820   72.0900 C   0  0  0  0  0  0  0  0  0  0  0  0
  -11.8860   16.1090   71.3020 O   0  0  0  0  0  0  0  0  0  0  0  0
  -14.5250   12.9860   72.6160 O   0  0  0  0  0  0  0  0  0  0  0  0
  -10.0060   17.9860   67.3590 C   0  0  0  0  0  0  0  0  0  0  0  0
  -10.6620   18.8430   66.4740 C   0  0  0  0  0  0  0  0  0  0  0  0
   -9.9980   19.8440   65.8740 N   0  0  0  0  0  0  0  0  0  0  0  0
  -10.6060   20.6610   64.8790 N   0  0  0  0  0  0  0  0  0  0  0  0
   -8.7220   20.0770   66.1080 N   0  0  0  0  0  0  0  0  0  0  0  0
   -8.0490   19.3200   66.9790 C   0  0  0  0  0  0  0  0  0  0  0  0
   -8.6500   18.2360   67.6450 C   0  0  0  0  0  0  0  0  0  0  0  0
   -6.7060   19.6010   67.2350 C   0  0  0  0  0  0  0  0  0  0  0  0
   -7.8660   17.4700   68.5430 C   0  0  0  0  0  0  0  0  0  0  0  0
   -6.5220   17.7910   68.7810 C   0  0  0  0  0  0  0  0  0  0  0  0
   -5.7130   16.9760   69.6930 C   0  0  0  0  0  0  0  0  0  0  0  0
   -5.9380   18.8670   68.1390 C   0  0  0  0  0  0  0  0  0  0  0  0
   -6.1360   15.9040   70.0930 O   0  0  0  0  0  0  0  0  0  0  0  0
   -4.3480   17.5120   70.0760 C   0  0  0  0  0  0  0  0  0  0  0  0
   -3.5910   16.8460   70.7630 O   0  0  0  0  0  0  0  0  0  0  0  0
   -4.0680   18.9220   69.6000 C   0  0  0  0  0  0  0  0  0  0  0  0
   -4.6370   19.2400   68.3200 O   0  0  0  0  0  0  0  0  0  0  0  0
   -6.1330   20.6330   66.5930 F   0  0  0  0  0  0  0  0  0  0  0  0
   -4.5000   19.9330   70.6140 C   0  0  0  0  0  0  0  0  0  0  0  0
   -5.5450   20.8590   70.2090 O   0  0  0  0  0  0  0  0  0  0  0  0
   -4.5450   19.4880   71.9590 O   0  0  0  0  0  0  0  0  0  0  0  0
   -3.6170   20.4200   71.6750 C   0  0  0  0  0  0  0  0  0  0  0  0
   -3.5030   21.5630   72.0800 O   0  0  0  0  0  0  0  0  0  0  0  0
  -10.7030   15.6450   65.8760 O   0  0  0  0  0  0  0  0  0  0  0  0
  -10.1480   14.3820   65.4450 C   0  0  0  0  0  0  0  0  0  0  0  0
   -9.7870   13.5880   66.5650 O   0  0  0  0  0  0  0  0  0  0  0  0
   -9.4650   12.2610   66.3270 C   0  0  0  0  0  0  0  0  0  0  0  0
   -8.7430   11.5780   67.2250 C   0  0  0  0  0  0  0  0  0  0  0  0
   -9.9500   11.5100   65.1290 C   0  0  0  0  0  0  0  0  0  0  0  0
   -8.2590   12.1500   68.3750 O   0  0  0  0  0  0  0  0  0  0  0  0
  -10.7550   12.3430   64.1570 C   0  0  0  0  0  0  0  0  0  0  0  0
   -9.7340   10.3290   64.9280 O   0  0  0  0  0  0  0  0  0  0  0  0
  -11.2080   13.7000   64.6050 C   0  0  0  0  0  0  0  0  0  0  0  0
  -10.9560   11.9860   63.0100 O   0  0  0  0  0  0  0  0  0  0  0  0
  -12.3050   14.1540   64.3170 O   0  0  0  0  0  0  0  0  0  0  0  0
  -12.4550   15.3680   73.5410 C   0  0  0  0  0  0  0  0  0  0  0  0
  -12.0830   16.6520   74.0560 O   0  0  0  0  0  0  0  0  0  0  0  0
  -13.4660   16.2560   74.0500 O   0  0  0  0  0  0  0  0  0  0  0  0
  1 40  1  0  0  0  0
  1  2  2  0  0  0  0
  1  6  1  0  0  0  0
  2  3  1  0  0  0  0
  2 17  1  0  0  0  0
  3  4  1  0  0  0  0
  4  5  2  0  0  0  0
  4 15  1  0  0  0  0
  5  6  1  0  0  0  0
  5  7  1  0  0  0  0
  7  8  1  0  0  0  0
  7 13  1  0  0  0  0
  8  9  1  0  0  0  0
  9 10  2  0  0  0  0
  9 11  1  0  0  0  0
 11 12  1  0  0  0  0
 12 13  1  0  0  0  0
 12 16  1  0  0  0  0
 13 14  2  0  0  0  0
 14 15  1  0  0  0  0
 14 52  1  0  0  0  0
 17 18  2  0  0  0  0
 17 23  1  0  0  0  0
 18 19  1  0  0  0  0
 19 20  1  0  0  0  0
 19 21  2  0  0  0  0
 21 22  1  0  0  0  0
 22 23  2  0  0  0  0
 22 24  1  0  0  0  0
 23 25  1  0  0  0  0
 24 28  2  0  0  0  0
 24 34  1  0  0  0  0
 25 26  2  0  0  0  0
 26 27  1  0  0  0  0
 26 28  1  0  0  0  0
 27 29  2  0  0  0  0
 27 30  1  0  0  0  0
 28 33  1  0  0  0  0
 30 31  2  0  0  0  0
 30 32  1  0  0  0  0
 32 33  1  0  0  0  0
 32 35  1  0  0  0  0
 35 36  1  0  0  0  0
 35 37  1  0  0  0  0
 35 38  1  0  0  0  0
 37 38  1  0  0  0  0
 38 39  2  0  0  0  0
 40 41  1  0  0  0  0
 41 42  1  0  0  0  0
 41 49  1  0  0  0  0
 42 43  1  0  0  0  0
 43 44  2  0  0  0  0
 43 45  1  0  0  0  0
 44 46  1  0  0  0  0
 45 47  1  0  0  0  0
 45 48  2  0  0  0  0
 47 49  1  0  0  0  0
 47 50  2  0  0  0  0
 49 51  2  0  0  0  0
 52 53  1  0  0  0  0
 52 54  1  0  0  0  0
 53 54  1  0  0  0  0
M  CHG  2  15   1  19   1
M  END