
 OpenBabel11282003413D

 54 62  0  0  1  0  0  0  0  0999 V2000
  -10.4670   15.3510   67.7160 C   0  0  0  0  0  0  0  0  0  0  0  0
  -10.4090   16.5840   68.2600 C   0  0  0  0  0  0  0  0  0  0  0  0
  -10.9240   16.9150   69.5070 O   0  0  0  0  0  0  0  0  0  0  0  0
  -11.5220   15.9310   70.2620 C   0  0  0  0  0  0  0  0  0  0  0  0
  -11.6270   14.6320   69.8180 C   0  0  0  0  0  0  0  0  0  0  0  0
  -11.0910   14.2230   68.4890 C   0  0  0  0  0  0  0  0  0  0  0  0
  -12.2720   13.7310   70.6540 C   0  0  0  0  0  0  0  0  0  0  0  0
  -12.4540   12.4220   70.1960 O   0  0  0  0  0  0  0  0  0  0  0  0
  -12.9370   11.3990   71.0060 C   0  0  0  0  0  0  0  0  0  0  0  0
  -13.0170   10.2500   70.5920 O   0  0  0  0  0  0  0  0  0  0  0  0
  -13.2350   11.7240   72.2850 O   0  0  0  0  0  0  0  0  0  0  0  0
  -13.4680   13.0680   72.6960 C   0  0  0  0  0  0  0  0  0  0  0  0
  -12.7690   14.0980   71.8860 C   0  0  0  0  0  0  0  0  0  0  0  0
  -12.6320   15.4360   72.2730 C   0  0  0  0  0  0  0  0  0  0  0  0
  -12.0160   16.3380   71.4530 N   0  0  0  0  0  0  0  0  0  0  0  0
  -14.8600   13.3330   72.6460 O   0  0  0  0  0  0  0  0  0  0  0  0
   -9.7820   17.7220   67.5620 C   0  0  0  0  0  0  0  0  0  0  0  0
  -10.6390   18.4200   66.7790 N   0  0  0  0  0  0  0  0  0  0  0  0
  -10.1410   19.5000   66.1590 C   0  0  0  0  0  0  0  0  0  0  0  0
  -10.9790   20.2160   65.3950 F   0  0  0  0  0  0  0  0  0  0  0  0
   -8.8280   19.9170   66.2560 C   0  0  0  0  0  0  0  0  0  0  0  0
   -7.9220   19.1850   67.0430 C   0  0  0  0  0  0  0  0  0  0  0  0
   -8.4100   18.0460   67.7260 C   0  0  0  0  0  0  0  0  0  0  0  0
   -6.5580   19.5550   67.1840 C   0  0  0  0  0  0  0  0  0  0  0  0
   -7.5160   17.3030   68.5400 C   0  0  0  0  0  0  0  0  0  0  0  0
   -6.1850   17.6930   68.7250 C   0  0  0  0  0  0  0  0  0  0  0  0
   -5.7340   18.8490   68.0850 C   0  0  0  0  0  0  0  0  0  0  0  0
   -5.2420   16.9650   69.5690 C   0  0  0  0  0  0  0  0  0  0  0  0
   -4.4490   19.3250   68.2370 O   0  0  0  0  0  0  0  0  0  0  0  0
   -3.8350   19.0630   69.5080 C   0  0  0  0  0  0  0  0  0  0  0  0
   -4.0080   17.6440   70.0210 C   0  0  0  0  0  0  0  0  0  0  0  0
   -3.2360   17.1480   70.8390 O   0  0  0  0  0  0  0  0  0  0  0  0
   -5.5500   15.3730   70.1220 Cl  0  0  0  0  0  0  0  0  0  0  0  0
   -6.0520   20.7400   66.5960 N   0  0  0  0  0  0  0  0  0  0  0  0
   -4.2360   20.0980   70.5220 C   0  0  0  0  0  0  0  0  0  0  0  0
   -5.2890   21.0070   70.1130 O   0  0  0  0  0  0  0  0  0  0  0  0
   -4.2970   19.6330   71.8720 O   0  0  0  0  0  0  0  0  0  0  0  0
   -3.3750   20.5860   71.6060 C   0  0  0  0  0  0  0  0  0  0  0  0
   -3.2590   21.6840   72.0910 O   0  0  0  0  0  0  0  0  0  0  0  0
   -9.9140   15.0890   66.4620 O   0  0  0  0  0  0  0  0  0  0  0  0
  -10.0610   13.7510   65.9880 C   0  0  0  0  0  0  0  0  0  0  0  0
  -10.3220   13.7420   64.5870 O   0  0  0  0  0  0  0  0  0  0  0  0
  -10.7170   12.4970   64.1440 C   0  0  0  0  0  0  0  0  0  0  0  0
  -11.7280   12.3740   63.2770 C   0  0  0  0  0  0  0  0  0  0  0  0
  -10.0210   11.2750   64.6480 C   0  0  0  0  0  0  0  0  0  0  0  0
  -12.4430   13.4510   62.8180 O   0  0  0  0  0  0  0  0  0  0  0  0
   -8.9340   11.4780   65.6830 C   0  0  0  0  0  0  0  0  0  0  0  0
  -10.3450   10.1550   64.2500 O   0  0  0  0  0  0  0  0  0  0  0  0
   -8.8180   12.8910   66.2120 C   0  0  0  0  0  0  0  0  0  0  0  0
   -7.7330   11.0140   65.2240 F   0  0  0  0  0  0  0  0  0  0  0  0
   -7.8440   13.2670   66.8650 O   0  0  0  0  0  0  0  0  0  0  0  0
  -13.1850   15.9490   73.5820 C   0  0  0  0  0  0  0  0  0  0  0  0
  -12.4760   15.6170   74.7880 O   0  0  0  0  0  0  0  0  0  0  0  0
  -12.4360   16.9610   74.2720 O   0  0  0  0  0  0  0  0  0  0  0  0
  1 40  1  0  0  0  0
  1  2  2  0  0  0  0
  1  6  1  0  0  0  0
  2  3  1  0  0  0  0
  2 17  1  0  0  0  0
  3  4  1  0  0  0  0
  4  5  2  0  0  0  0
  4 15  1  0  0  0  0
  5  6  1  0  0  0  0
  5  7  1  0  0  0  0
  7  8  1  0  0  0  0
  7 13  2  0  0  0  0
  8  9  1  0  0  0  0
  9 10  2  0  0  0  0
  9 11  1  0  0  0  0
 11 12  1  0  0  0  0
 12 13  1  0  0  0  0
 12 16  1  0  0  0  0
 13 14  1  0  0  0  0
 14 15  2  0  0  0  0
 14 52  1  0  0  0  0
 17 18  2  0  0  0  0
 17 23  1  0  0  0  0
 18 19  1  0  0  0  0
 19 20  1  0  0  0  0
 19 21  2  0  0  0  0
 21 22  1  0  0  0  0
 22 23  2  0  0  0  0
 22 24  1  0  0  0  0
 23 25  1  0  0  0  0
 24 27  2  0  0  0  0
 24 34  1  0  0  0  0
 25 26  2  0  0  0  0
 26 27  1  0  0  0  0
 26 28  1  0  0  0  0
 27 29  1  0  0  0  0
 28 31  1  0  0  0  0
 28 33  2  0  0  0  0
 29 30  1  0  0  0  0
 30 31  1  0  0  0  0
 30 35  1  0  0  0  0
 31 32  2  0  0  0  0
 35 36  1  0  0  0  0
 35 37  1  0  0  0  0
 35 38  1  0  0  0  0
 37 38  1  0  0  0  0
 38 39  2  0  0  0  0
 40 41  1  0  0  0  0
 41 42  1  0  0  0  0
 41 49  1  0  0  0  0
 42 43  1  0  0  0  0
 43 44  2  0  0  0  0
 43 45  1  0  0  0  0
 44 46  1  0  0  0  0
 45 47  1  0  0  0  0
 45 48  2  0  0  0  0
 47 49  1  0  0  0  0
 47 50  1  0  0  0  0
 49 51  2  0  0  0  0
 52 53  1  0  0  0  0
 52 54  1  0  0  0  0
 53 54  1  0  0  0  0
M  CHG  1  33   1
M  END