
 OpenBabel11222001103D

 54 62  0  0  1  0  0  0  0  0999 V2000
  -11.1440   15.7960   67.4470 C   0  0  0  0  0  0  0  0  0  0  0  0
  -10.6550   16.8830   68.1040 C   0  0  0  0  0  0  0  0  0  0  0  0
  -10.7870   16.9910   69.5030 O   0  0  0  0  0  0  0  0  0  0  0  0
  -11.5670   16.0800   70.2270 C   0  0  0  0  0  0  0  0  0  0  0  0
  -11.9850   14.9370   69.6570 C   0  0  0  0  0  0  0  0  0  0  0  0
  -11.7120   14.6230   68.2190 C   0  0  0  0  0  0  0  0  0  0  0  0
  -12.8050   13.9200   70.4020 C   0  0  0  0  0  0  0  0  0  0  0  0
  -12.0290   12.7420   70.5290 O   0  0  0  0  0  0  0  0  0  0  0  0
  -12.5950   11.7080   71.2070 C   0  0  0  0  0  0  0  0  0  0  0  0
  -12.1390   10.5710   71.1340 O   0  0  0  0  0  0  0  0  0  0  0  0
  -13.6970   12.0070   71.9320 O   0  0  0  0  0  0  0  0  0  0  0  0
  -13.9280   13.3120   72.4560 C   0  0  0  0  0  0  0  0  0  0  0  0
  -13.1120   14.3560   71.7790 C   0  0  0  0  0  0  0  0  0  0  0  0
  -12.6830   15.5280   72.2970 C   0  0  0  0  0  0  0  0  0  0  0  0
  -11.8910   16.3850   71.5370 O   0  0  0  0  0  0  0  0  0  0  0  0
  -15.2690   13.6770   72.1800 O   0  0  0  0  0  0  0  0  0  0  0  0
   -9.9240   18.0440   67.4450 C   0  0  0  0  0  0  0  0  0  0  0  0
  -10.6140   18.8430   66.5270 C   0  0  0  0  0  0  0  0  0  0  0  0
  -10.0340   19.8890   65.9270 N   0  0  0  0  0  0  0  0  0  0  0  0
  -10.7500   20.6260   65.0540 F   0  0  0  0  0  0  0  0  0  0  0  0
   -8.7840   20.2370   66.1500 N   0  0  0  0  0  0  0  0  0  0  0  0
   -8.0360   19.5210   66.9870 C   0  0  0  0  0  0  0  0  0  0  0  0
   -8.5490   18.3810   67.6530 C   0  0  0  0  0  0  0  0  0  0  0  0
   -6.7110   19.9290   67.2140 C   0  0  0  0  0  0  0  0  0  0  0  0
   -7.6390   17.6780   68.4800 C   0  0  0  0  0  0  0  0  0  0  0  0
   -6.3160   18.1020   68.6710 C   0  0  0  0  0  0  0  0  0  0  0  0
   -5.4180   17.3130   69.5190 C   0  0  0  0  0  0  0  0  0  0  0  0
   -5.8490   19.2550   68.0760 C   0  0  0  0  0  0  0  0  0  0  0  0
   -5.7340   16.2000   69.9190 O   0  0  0  0  0  0  0  0  0  0  0  0
   -4.0720   17.9140   69.8160 C   0  0  0  0  0  0  0  0  0  0  0  0
   -3.1000   17.1870   70.2680 N   0  0  0  0  0  0  0  0  0  0  0  0
   -3.9710   19.4010   69.5440 C   0  0  0  0  0  0  0  0  0  0  0  0
   -4.5980   19.7660   68.2920 O   0  0  0  0  0  0  0  0  0  0  0  0
   -6.2660   21.0330   66.5910 F   0  0  0  0  0  0  0  0  0  0  0  0
   -4.5690   20.1980   70.6760 C   0  0  0  0  0  0  0  0  0  0  0  0
   -5.9290   20.6670   70.5070 O   0  0  0  0  0  0  0  0  0  0  0  0
   -4.2610   19.7320   71.9880 O   0  0  0  0  0  0  0  0  0  0  0  0
   -3.7200   21.0110   71.6350 C   0  0  0  0  0  0  0  0  0  0  0  0
   -4.4110   22.1440   72.1990 O   0  0  0  0  0  0  0  0  0  0  0  0
  -11.0890   15.6900   66.0610 O   0  0  0  0  0  0  0  0  0  0  0  0
  -10.6440   14.4400   65.4620 C   0  0  0  0  0  0  0  0  0  0  0  0
  -10.3950   13.4610   66.4640 O   0  0  0  0  0  0  0  0  0  0  0  0
   -9.9560   12.2750   65.8950 C   0  0  0  0  0  0  0  0  0  0  0  0
   -8.7730   11.7430   66.2180 C   0  0  0  0  0  0  0  0  0  0  0  0
  -10.8040   11.6080   64.8700 C   0  0  0  0  0  0  0  0  0  0  0  0
   -7.8920   12.3650   67.0700 O   0  0  0  0  0  0  0  0  0  0  0  0
  -11.9320   12.5070   64.4050 C   0  0  0  0  0  0  0  0  0  0  0  0
  -10.5940   10.5080   64.3970 O   0  0  0  0  0  0  0  0  0  0  0  0
  -11.7430   14.0100   64.4950 C   0  0  0  0  0  0  0  0  0  0  0  0
  -13.0000   12.0480   64.0400 O   0  0  0  0  0  0  0  0  0  0  0  0
  -12.4290   14.7910   63.8480 O   0  0  0  0  0  0  0  0  0  0  0  0
  -13.0040   15.9690   73.6760 C   0  0  0  0  0  0  0  0  0  0  0  0
  -12.2570   15.4810   74.7960 O   0  0  0  0  0  0  0  0  0  0  0  0
  -12.1270   16.8570   74.3870 O   0  0  0  0  0  0  0  0  0  0  0  0
  1 40  1  0  0  0  0
  1  2  2  0  0  0  0
  1  6  1  0  0  0  0
  2  3  1  0  0  0  0
  2 17  1  0  0  0  0
  3  4  1  0  0  0  0
  4  5  2  0  0  0  0
  4 15  1  0  0  0  0
  5  6  1  0  0  0  0
  5  7  1  0  0  0  0
  7  8  1  0  0  0  0
  7 13  1  0  0  0  0
  8  9  1  0  0  0  0
  9 10  2  0  0  0  0
  9 11  1  0  0  0  0
 11 12  1  0  0  0  0
 12 13  1  0  0  0  0
 12 16  1  0  0  0  0
 13 14  2  0  0  0  0
 14 15  1  0  0  0  0
 14 52  1  0  0  0  0
 17 18  2  0  0  0  0
 17 23  1  0  0  0  0
 18 19  1  0  0  0  0
 19 20  1  0  0  0  0
 19 21  2  0  0  0  0
 21 22  1  0  0  0  0
 22 23  2  0  0  0  0
 22 24  1  0  0  0  0
 23 25  1  0  0  0  0
 24 28  2  0  0  0  0
 24 34  1  0  0  0  0
 25 26  2  0  0  0  0
 26 27  1  0  0  0  0
 26 28  1  0  0  0  0
 27 29  2  0  0  0  0
 27 30  1  0  0  0  0
 28 33  1  0  0  0  0
 30 31  2  0  0  0  0
 30 32  1  0  0  0  0
 32 33  1  0  0  0  0
 32 35  1  0  0  0  0
 35 36  1  0  0  0  0
 35 37  1  0  0  0  0
 35 38  1  0  0  0  0
 37 38  1  0  0  0  0
 38 39  1  0  0  0  0
 40 41  1  0  0  0  0
 41 42  1  0  0  0  0
 41 49  1  0  0  0  0
 42 43  1  0  0  0  0
 43 44  2  0  0  0  0
 43 45  1  0  0  0  0
 44 46  1  0  0  0  0
 45 47  1  0  0  0  0
 45 48  2  0  0  0  0
 47 49  1  0  0  0  0
 47 50  2  0  0  0  0
 49 51  2  0  0  0  0
 52 53  1  0  0  0  0
 52 54  1  0  0  0  0
 53 54  1  0  0  0  0
M  CHG  2  15   1  19   1
M  END