
 OpenBabel11222022403D

 54 63  0  0  1  0  0  0  0  0999 V2000
  -10.0990   15.3600   67.5400 C   0  0  0  0  0  0  0  0  0  0  0  0
  -10.2160   16.6450   67.9640 C   0  0  0  0  0  0  0  0  0  0  0  0
  -10.9470   16.9540   69.1280 O   0  0  0  0  0  0  0  0  0  0  0  0
  -11.5670   15.9500   69.8780 C   0  0  0  0  0  0  0  0  0  0  0  0
  -11.5870   14.6760   69.4510 C   0  0  0  0  0  0  0  0  0  0  0  0
  -10.8560   14.2420   68.2240 C   0  0  0  0  0  0  0  0  0  0  0  0
  -12.3440   13.5980   70.1760 C   0  0  0  0  0  0  0  0  0  0  0  0
  -11.4700   12.5220   70.4660 O   0  0  0  0  0  0  0  0  0  0  0  0
  -12.1070   11.4220   70.9620 C   0  0  0  0  0  0  0  0  0  0  0  0
  -11.6570   10.2980   70.8320 O   0  0  0  0  0  0  0  0  0  0  0  0
  -13.3000   11.6930   71.5540 O   0  0  0  0  0  0  0  0  0  0  0  0
  -13.4150   12.9220   72.2620 C   0  0  0  0  0  0  0  0  0  0  0  0
  -12.8520   14.0650   71.4830 C   0  0  0  0  0  0  0  0  0  0  0  0
  -12.7600   15.3530   71.8860 C   0  0  0  0  0  0  0  0  0  0  0  0
  -12.1710   16.3080   71.0670 O   0  0  0  0  0  0  0  0  0  0  0  0
  -14.7870   13.2220   72.4190 O   0  0  0  0  0  0  0  0  0  0  0  0
   -9.6610   17.8570   67.2410 C   0  0  0  0  0  0  0  0  0  0  0  0
  -10.5200   18.6160   66.4250 C   0  0  0  0  0  0  0  0  0  0  0  0
  -10.1140   19.7580   65.8460 N   0  0  0  0  0  0  0  0  0  0  0  0
  -10.9770   20.4250   65.0540 F   0  0  0  0  0  0  0  0  0  0  0  0
   -8.8970   20.2750   66.0410 C   0  0  0  0  0  0  0  0  0  0  0  0
   -7.9710   19.6120   66.8400 C   0  0  0  0  0  0  0  0  0  0  0  0
   -8.3270   18.3630   67.4190 C   0  0  0  0  0  0  0  0  0  0  0  0
   -6.7020   20.1850   67.0660 C   0  0  0  0  0  0  0  0  0  0  0  0
   -7.2930   17.7060   68.1280 C   0  0  0  0  0  0  0  0  0  0  0  0
   -6.0260   18.2890   68.3300 C   0  0  0  0  0  0  0  0  0  0  0  0
   -5.7370   19.5510   67.8400 C   0  0  0  0  0  0  0  0  0  0  0  0
   -5.0090   17.5560   69.1000 C   0  0  0  0  0  0  0  0  0  0  0  0
   -4.5490   20.1930   68.0760 O   0  0  0  0  0  0  0  0  0  0  0  0
   -3.8290   19.6970   69.2370 C   0  0  0  0  0  0  0  0  0  0  0  0
   -3.6690   18.2380   69.3070 C   0  0  0  0  0  0  0  0  0  0  0  0
   -2.7960   20.5020   69.7380 O   0  0  0  0  0  0  0  0  0  0  0  0
   -3.9920   20.3810   70.5620 C   0  0  0  0  0  0  0  0  0  0  0  0
   -2.6530   17.6400   69.6050 O   0  0  0  0  0  0  0  0  0  0  0  0
   -5.0640   21.3670   70.3910 O   0  0  0  0  0  0  0  0  0  0  0  0
   -4.1310   21.6240   71.2940 C   0  0  0  0  0  0  0  0  0  0  0  0
   -4.2490   21.8540   72.4720 O   0  0  0  0  0  0  0  0  0  0  0  0
   -5.2940   16.4850   69.6170 O   0  0  0  0  0  0  0  0  0  0  0  0
   -6.4340   21.3890   66.5380 F   0  0  0  0  0  0  0  0  0  0  0  0
   -9.3310   15.0250   66.4330 O   0  0  0  0  0  0  0  0  0  0  0  0
   -9.8390   13.9840   65.5610 C   0  0  0  0  0  0  0  0  0  0  0  0
  -10.3630   12.8970   66.3210 O   0  0  0  0  0  0  0  0  0  0  0  0
  -10.7650   11.8370   65.5190 C   0  0  0  0  0  0  0  0  0  0  0  0
  -10.6370   10.5650   65.9150 C   0  0  0  0  0  0  0  0  0  0  0  0
  -11.3690   12.1040   64.1830 C   0  0  0  0  0  0  0  0  0  0  0  0
  -10.1060   10.2090   67.1290 O   0  0  0  0  0  0  0  0  0  0  0  0
  -11.7890   13.5530   64.0340 C   0  0  0  0  0  0  0  0  0  0  0  0
  -11.4240   11.3080   63.2660 O   0  0  0  0  0  0  0  0  0  0  0  0
  -10.8890   14.5990   64.6530 C   0  0  0  0  0  0  0  0  0  0  0  0
  -12.8380   13.8620   63.5000 O   0  0  0  0  0  0  0  0  0  0  0  0
  -10.9620   15.7890   64.3810 O   0  0  0  0  0  0  0  0  0  0  0  0
  -13.2350   15.8360   73.2050 C   0  0  0  0  0  0  0  0  0  0  0  0
  -12.5970   15.4150   74.4160 O   0  0  0  0  0  0  0  0  0  0  0  0
  -12.4430   16.7720   73.9580 O   0  0  0  0  0  0  0  0  0  0  0  0
  1 40  1  0  0  0  0
  1  2  2  0  0  0  0
  1  6  1  0  0  0  0
  2  3  1  0  0  0  0
  2 17  1  0  0  0  0
  3  4  1  0  0  0  0
  4  5  2  0  0  0  0
  4 15  1  0  0  0  0
  5  6  1  0  0  0  0
  5  7  1  0  0  0  0
  7  8  1  0  0  0  0
  7 13  1  0  0  0  0
  8  9  1  0  0  0  0
  9 10  2  0  0  0  0
  9 11  1  0  0  0  0
 11 12  1  0  0  0  0
 12 13  1  0  0  0  0
 12 16  1  0  0  0  0
 13 14  2  0  0  0  0
 14 15  1  0  0  0  0
 14 52  1  0  0  0  0
 17 18  2  0  0  0  0
 17 23  1  0  0  0  0
 18 19  1  0  0  0  0
 19 20  1  0  0  0  0
 19 21  2  0  0  0  0
 21 22  1  0  0  0  0
 22 23  2  0  0  0  0
 22 24  1  0  0  0  0
 23 25  1  0  0  0  0
 24 27  2  0  0  0  0
 24 39  1  0  0  0  0
 25 26  2  0  0  0  0
 26 27  1  0  0  0  0
 26 28  1  0  0  0  0
 27 29  1  0  0  0  0
 28 31  1  0  0  0  0
 28 38  2  0  0  0  0
 29 30  1  0  0  0  0
 30 31  1  0  0  0  0
 30 32  1  0  0  0  0
 30 33  1  0  0  0  0
 31 34  2  0  0  0  0
 32 33  1  0  0  0  0
 33 35  1  0  0  0  0
 33 36  1  0  0  0  0
 35 36  1  0  0  0  0
 36 37  2  0  0  0  0
 40 41  1  0  0  0  0
 41 42  1  0  0  0  0
 41 49  1  0  0  0  0
 42 43  1  0  0  0  0
 43 44  2  0  0  0  0
 43 45  1  0  0  0  0
 44 46  1  0  0  0  0
 45 47  1  0  0  0  0
 45 48  2  0  0  0  0
 47 49  1  0  0  0  0
 47 50  2  0  0  0  0
 49 51  2  0  0  0  0
 52 53  1  0  0  0  0
 52 54  1  0  0  0  0
 53 54  1  0  0  0  0
M  CHG  2  15   1  19   1
M  END