
 OpenBabel11212014153D

 52 60  0  0  1  0  0  0  0  0999 V2000
  -10.9640   15.7980   67.2260 C   0  0  0  0  0  0  0  0  0  0  0  0
  -10.8250   16.8880   68.0190 C   0  0  0  0  0  0  0  0  0  0  0  0
  -11.2800   16.9290   69.3480 O   0  0  0  0  0  0  0  0  0  0  0  0
  -11.8140   15.7820   69.9330 C   0  0  0  0  0  0  0  0  0  0  0  0
  -11.9480   14.6480   69.2320 C   0  0  0  0  0  0  0  0  0  0  0  0
  -11.5980   14.5650   67.7930 C   0  0  0  0  0  0  0  0  0  0  0  0
  -12.4850   13.3800   69.8130 C   0  0  0  0  0  0  0  0  0  0  0  0
  -11.4410   12.4250   69.7650 O   0  0  0  0  0  0  0  0  0  0  0  0
  -11.7540   11.1750   70.1930 C   0  0  0  0  0  0  0  0  0  0  0  0
  -11.1290   10.1940   69.8280 O   0  0  0  0  0  0  0  0  0  0  0  0
  -12.8090   11.1070   71.0440 O   0  0  0  0  0  0  0  0  0  0  0  0
  -13.2860   12.2320   71.8060 C   0  0  0  0  0  0  0  0  0  0  0  0
  -12.8310   13.5380   71.2430 C   0  0  0  0  0  0  0  0  0  0  0  0
  -12.6800   14.7100   71.9050 C   0  0  0  0  0  0  0  0  0  0  0  0
  -12.1900   15.8380   71.2540 O   0  0  0  0  0  0  0  0  0  0  0  0
  -10.1610   18.1380   67.5950 C   0  0  0  0  0  0  0  0  0  0  0  0
  -10.9330   18.9240   66.8190 N   0  0  0  0  0  0  0  0  0  0  0  0
  -10.4440   20.0430   66.3700 N   0  0  0  0  0  0  0  0  0  0  0  0
   -9.2120   20.4230   66.6320 N   0  0  0  0  0  0  0  0  0  0  0  0
   -8.3940   19.6670   67.3800 C   0  0  0  0  0  0  0  0  0  0  0  0
   -8.8370   18.4530   67.9010 C   0  0  0  0  0  0  0  0  0  0  0  0
   -7.0720   20.0600   67.6610 C   0  0  0  0  0  0  0  0  0  0  0  0
   -7.9580   17.6490   68.6680 C   0  0  0  0  0  0  0  0  0  0  0  0
   -6.6630   18.0920   68.9590 C   0  0  0  0  0  0  0  0  0  0  0  0
   -5.7790   17.2810   69.7980 C   0  0  0  0  0  0  0  0  0  0  0  0
   -6.2130   19.3040   68.4690 C   0  0  0  0  0  0  0  0  0  0  0  0
   -6.1280   16.1780   70.1900 O   0  0  0  0  0  0  0  0  0  0  0  0
   -4.4330   17.8710   70.1510 C   0  0  0  0  0  0  0  0  0  0  0  0
   -3.5630   17.1700   70.6480 O   0  0  0  0  0  0  0  0  0  0  0  0
   -4.3030   19.3550   69.8950 C   0  0  0  0  0  0  0  0  0  0  0  0
   -4.9690   19.8190   68.7070 O   0  0  0  0  0  0  0  0  0  0  0  0
   -6.6010   21.2430   67.1360 O   0  0  0  0  0  0  0  0  0  0  0  0
   -4.7270   20.1620   71.0880 C   0  0  0  0  0  0  0  0  0  0  0  0
   -6.1440   20.3570   71.2740 O   0  0  0  0  0  0  0  0  0  0  0  0
   -4.0040   19.9170   72.2990 O   0  0  0  0  0  0  0  0  0  0  0  0
   -3.8310   21.1130   71.7200 C   0  0  0  0  0  0  0  0  0  0  0  0
   -2.8220   21.6750   71.3380 O   0  0  0  0  0  0  0  0  0  0  0  0
  -10.5670   15.7850   65.8910 O   0  0  0  0  0  0  0  0  0  0  0  0
  -10.4220   14.5180   65.1860 C   0  0  0  0  0  0  0  0  0  0  0  0
  -10.2340   13.4140   66.0810 O   0  0  0  0  0  0  0  0  0  0  0  0
   -9.9130   12.2190   65.4790 C   0  0  0  0  0  0  0  0  0  0  0  0
   -8.9760   11.3940   65.9700 C   0  0  0  0  0  0  0  0  0  0  0  0
  -10.6930   11.7790   64.2980 C   0  0  0  0  0  0  0  0  0  0  0  0
   -8.1990   11.6740   67.0690 O   0  0  0  0  0  0  0  0  0  0  0  0
  -11.7490   12.7830   63.8760 C   0  0  0  0  0  0  0  0  0  0  0  0
  -10.5120   10.7250   63.7140 O   0  0  0  0  0  0  0  0  0  0  0  0
  -11.6770   14.2170   64.3780 C   0  0  0  0  0  0  0  0  0  0  0  0
  -12.6680   12.4260   63.1580 O   0  0  0  0  0  0  0  0  0  0  0  0
  -12.5720   15.0140   64.1360 O   0  0  0  0  0  0  0  0  0  0  0  0
  -13.0320   14.8800   73.3320 C   0  0  0  0  0  0  0  0  0  0  0  0
  -12.0320   15.2580   74.2910 O   0  0  0  0  0  0  0  0  0  0  0  0
  -13.0810   16.1810   73.9320 O   0  0  0  0  0  0  0  0  0  0  0  0
  1 38  1  0  0  0  0
  1  2  2  0  0  0  0
  1  6  1  0  0  0  0
  2  3  1  0  0  0  0
  2 16  1  0  0  0  0
  3  4  1  0  0  0  0
  4  5  2  0  0  0  0
  4 15  1  0  0  0  0
  5  6  1  0  0  0  0
  5  7  1  0  0  0  0
  7  8  1  0  0  0  0
  7 13  1  0  0  0  0
  8  9  1  0  0  0  0
  9 10  2  0  0  0  0
  9 11  1  0  0  0  0
 11 12  1  0  0  0  0
 12 13  1  0  0  0  0
 13 14  2  0  0  0  0
 14 15  1  0  0  0  0
 14 50  1  0  0  0  0
 16 17  2  0  0  0  0
 16 21  1  0  0  0  0
 17 18  1  0  0  0  0
 18 19  2  0  0  0  0
 19 20  1  0  0  0  0
 20 21  2  0  0  0  0
 20 22  1  0  0  0  0
 21 23  1  0  0  0  0
 22 26  2  0  0  0  0
 22 32  1  0  0  0  0
 23 24  2  0  0  0  0
 24 25  1  0  0  0  0
 24 26  1  0  0  0  0
 25 27  2  0  0  0  0
 25 28  1  0  0  0  0
 26 31  1  0  0  0  0
 28 29  2  0  0  0  0
 28 30  1  0  0  0  0
 30 31  1  0  0  0  0
 30 33  1  0  0  0  0
 33 34  1  0  0  0  0
 33 35  1  0  0  0  0
 33 36  1  0  0  0  0
 35 36  1  0  0  0  0
 36 37  2  0  0  0  0
 38 39  1  0  0  0  0
 39 40  1  0  0  0  0
 39 47  1  0  0  0  0
 40 41  1  0  0  0  0
 41 42  2  0  0  0  0
 41 43  1  0  0  0  0
 42 44  1  0  0  0  0
 43 45  1  0  0  0  0
 43 46  2  0  0  0  0
 45 47  1  0  0  0  0
 45 48  2  0  0  0  0
 47 49  2  0  0  0  0
 50 51  1  0  0  0  0
 50 52  1  0  0  0  0
 51 52  1  0  0  0  0
M  CHG  1  15   1
M  END