
 OpenBabel10232020483D

 94109  0  0  1  0  0  0  0  0999 V2000
   -9.8420   15.3770   69.0860 C   0  0  0  0  0  0  0  0  0  0  0  0
   -8.5070   15.8780   69.3840 O   0  0  0  0  0  0  0  0  0  0  0  0
   -8.0330   16.8930   68.5850 C   0  0  0  0  0  0  0  0  0  0  0  0
   -8.8730   17.7290   67.8900 C   0  0  0  0  0  0  0  0  0  0  0  0
  -10.3680   17.6250   68.0540 C   0  0  0  0  0  0  0  0  0  0  0  0
  -10.8200   16.5730   69.0830 C   0  0  0  0  0  0  0  0  0  0  0  0
  -10.8740   17.2220   70.3630 O   0  0  0  0  0  0  0  0  0  0  0  0
  -10.8830   18.9170   68.3610 O   0  0  0  0  0  0  0  0  0  0  0  0
   -8.3160   18.6320   66.9490 C   0  0  0  0  0  0  0  0  0  0  0  0
   -6.9400   18.6730   66.6440 C   0  0  0  0  0  0  0  0  0  0  0  0
   -6.0740   17.9060   67.4370 C   0  0  0  0  0  0  0  0  0  0  0  0
   -6.6600   17.0390   68.4320 C   0  0  0  0  0  0  0  0  0  0  0  0
   -5.8480   16.2250   69.1580 F   0  0  0  0  0  0  0  0  0  0  0  0
   -4.7050   18.0230   67.1800 C   0  0  0  0  0  0  0  0  0  0  0  0
   -3.4810   17.2870   68.1730 Cl  0  0  0  0  0  0  0  0  0  0  0  0
   -4.2060   18.7460   66.0710 C   0  0  0  0  0  0  0  0  0  0  0  0
   -5.0000   19.4110   65.1190 C   0  0  0  0  0  0  0  0  0  0  0  0
   -6.3720   19.4590   65.5250 C   0  0  0  0  0  0  0  0  0  0  0  0
   -7.4750   20.5320   64.6780 Cl  0  0  0  0  0  0  0  0  0  0  0  0
   -9.8430   14.5030   67.7790 C   0  0  0  0  0  0  0  0  0  0  0  0
  -11.2250   13.8340   67.4320 C   0  0  0  0  0  0  0  0  0  0  0  0
  -11.3030   12.2770   67.3290 C   0  0  0  0  0  0  0  0  0  0  0  0
  -10.3490   11.6630   68.3170 C   0  0  0  0  0  0  0  0  0  0  0  0
   -9.0400   12.1380   68.3660 C   0  0  0  0  0  0  0  0  0  0  0  0
  -10.7160   10.5220   69.0470 C   0  0  0  0  0  0  0  0  0  0  0  0
   -8.7090   13.4540   67.6860 C   0  0  0  0  0  0  0  0  0  0  0  0
   -8.0470   11.2520   68.8080 C   0  0  0  0  0  0  0  0  0  0  0  0
   -7.2510   13.8840   67.8400 C   0  0  0  0  0  0  0  0  0  0  0  0
   -6.3200   12.6880   67.6790 C   0  0  0  0  0  0  0  0  0  0  0  0
   -6.9750   14.7710   66.8270 F   0  0  0  0  0  0  0  0  0  0  0  0
   -6.5940   11.7050   68.8210 C   0  0  0  0  0  0  0  0  0  0  0  0
   -5.5700   10.5690   68.8430 C   0  0  0  0  0  0  0  0  0  0  0  0
   -6.1320    9.3010   68.2390 C   0  0  0  0  0  0  0  0  0  0  0  0
   -7.3450    8.8330   69.0510 C   0  0  0  0  0  0  0  0  0  0  0  0
   -8.4060    9.9310   69.1920 C   0  0  0  0  0  0  0  0  0  0  0  0
   -7.9920    7.4190   68.1410 Cl  0  0  0  0  0  0  0  0  0  0  0  0
   -9.7540    9.6350   69.5470 C   0  0  0  0  0  0  0  0  0  0  0  0
  -11.1780   11.6260   65.8860 C   0  0  0  0  0  0  0  0  0  0  0  0
  -10.9030   12.4900   64.6290 C   0  0  0  0  0  0  0  0  0  0  0  0
  -10.1560   11.6120   63.6540 C   0  0  0  0  0  0  0  0  0  0  0  0
  -10.0110   13.4840   64.8410 F   0  0  0  0  0  0  0  0  0  0  0  0
   -9.1880   10.9360   64.6150 C   0  0  0  0  0  0  0  0  0  0  0  0
   -8.3440    9.6170   63.8090 Cl  0  0  0  0  0  0  0  0  0  0  0  0
  -10.1230   10.4810   65.7390 C   0  0  0  0  0  0  0  0  0  0  0  0
  -10.1510    8.4200   70.3270 C   0  0  0  0  0  0  0  0  0  0  0  0
   -9.9380    8.3720   71.7180 C   0  0  0  0  0  0  0  0  0  0  0  0
  -10.0750    7.1890   72.4750 C   0  0  0  0  0  0  0  0  0  0  0  0
   -9.4350    7.1350   73.8550 C   0  0  0  0  0  0  0  0  0  0  0  0
  -10.6400    6.0530   71.8820 C   0  0  0  0  0  0  0  0  0  0  0  0
   -7.9070    7.0070   73.6600 C   0  0  0  0  0  0  0  0  0  0  0  0
   -9.9910    6.0000   74.7410 C   0  0  0  0  0  0  0  0  0  0  0  0
   -7.1400    6.8610   74.9660 C   0  0  0  0  0  0  0  0  0  0  0  0
   -7.6800    5.7250   75.8430 C   0  0  0  0  0  0  0  0  0  0  0  0
   -9.1970    5.9190   76.0790 C   0  0  0  0  0  0  0  0  0  0  0  0
   -6.8700    5.6720   77.1420 C   0  0  0  0  0  0  0  0  0  0  0  0
   -9.7880    4.8730   77.0290 C   0  0  0  0  0  0  0  0  0  0  0  0
  -10.0230    4.6820   73.9430 C   0  0  0  0  0  0  0  0  0  0  0  0
  -10.9020    4.7890   72.6790 C   0  0  0  0  0  0  0  0  0  0  0  0
  -12.3890    4.6850   73.0430 C   0  0  0  0  0  0  0  0  0  0  0  0
  -10.9710    6.1130   70.5210 C   0  0  0  0  0  0  0  0  0  0  0  0
  -10.6980    7.2580   69.7600 C   0  0  0  0  0  0  0  0  0  0  0  0
  -10.9560    7.1970   68.4420 F   0  0  0  0  0  0  0  0  0  0  0  0
   -4.4130   20.0180   63.8030 C   0  0  0  0  0  0  0  0  0  0  0  0
   -4.2950   19.2200   62.6200 C   0  0  0  0  0  0  0  0  0  0  0  0
   -3.8350   19.5640   61.1970 C   0  0  0  0  0  0  0  0  0  0  0  0
   -3.6250   20.9850   61.2250 N   0  0  0  0  0  0  0  0  0  0  0  0
   -3.5710   18.8780   59.7090 C   0  0  0  0  0  0  0  0  0  0  0  0
   -3.7110   21.7800   62.3630 N   0  0  0  0  0  0  0  0  0  0  0  0
   -3.2740   21.6600   60.1540 N   0  0  0  0  0  0  0  0  0  0  0  0
   -3.8870   21.3020   63.6250 C   0  0  0  0  0  0  0  0  0  0  0  0
   -3.6500   23.5100   62.1430 Cl  0  0  0  0  0  0  0  0  0  0  0  0
   -3.3770   22.1880   64.7290 C   0  0  0  0  0  0  0  0  0  0  0  0
   -3.1330   21.1310   58.9590 C   0  0  0  0  0  0  0  0  0  0  0  0
   -3.2850   19.7870   58.6490 C   0  0  0  0  0  0  0  0  0  0  0  0
   -3.2470   19.5440   57.2640 N   0  0  0  0  0  0  0  0  0  0  0  0
   -3.5540   17.1720   59.3140 N   0  0  0  0  0  0  0  0  0  0  0  0
   -4.5260   16.4780   58.5200 N   0  0  0  0  0  0  0  0  0  0  0  0
   -5.8250   17.1880   57.7080 Cl  0  0  0  0  0  0  0  0  0  0  0  0
   -4.5170   15.1110   58.2670 C   0  0  0  0  0  0  0  0  0  0  0  0
   -3.5660   14.1860   58.6940 C   0  0  0  0  0  0  0  0  0  0  0  0
   -2.6070   14.7500   59.4790 C   0  0  0  0  0  0  0  0  0  0  0  0
   -3.5030   12.7970   58.3920 N   0  0  0  0  0  0  0  0  0  0  0  0
   -2.5860   16.2160   59.8130 C   0  0  0  0  0  0  0  0  0  0  0  0
   -1.6390   13.9120   59.8800 N   0  0  0  0  0  0  0  0  0  0  0  0
   -1.4270   16.4240   60.5740 N   0  0  0  0  0  0  0  0  0  0  0  0
   -1.5130   12.6050   59.5900 N   0  0  0  0  0  0  0  0  0  0  0  0
   -2.4660   11.9520   58.8490 C   0  0  0  0  0  0  0  0  0  0  0  0
   -0.0580   11.9150   60.1680 Cl  0  0  0  0  0  0  0  0  0  0  0  0
   -2.5440   10.6160   58.5100 N   0  0  0  0  0  0  0  0  0  0  0  0
   -3.5440   10.1310   57.7360 C   0  0  0  0  0  0  0  0  0  0  0  0
   -1.4470    9.4190   59.0620 Cl  0  0  0  0  0  0  0  0  0  0  0  0
   -4.5060   10.9480   57.2830 N   0  0  0  0  0  0  0  0  0  0  0  0
   -4.4850   12.2580   57.6100 N   0  0  0  0  0  0  0  0  0  0  0  0
   -5.6120   10.4150   56.4100 C   0  0  0  0  0  0  0  0  0  0  0  0
  1 20  1  0  0  0  0
  1  2  1  0  0  0  0
  1  6  1  0  0  0  0
  2  3  1  0  0  0  0
  3  4  2  0  0  0  0
  3 12  1  0  0  0  0
  4  5  1  0  0  0  0
  4  9  1  0  0  0  0
  5  6  1  0  0  0  0
  5  8  1  0  0  0  0
  6  7  1  0  0  0  0
  9 10  2  0  0  0  0
 10 11  1  0  0  0  0
 10 18  1  0  0  0  0
 11 12  2  0  0  0  0
 11 14  1  0  0  0  0
 12 13  1  0  0  0  0
 14 15  1  0  0  0  0
 14 16  2  0  0  0  0
 16 17  1  0  0  0  0
 17 18  2  0  0  0  0
 17 63  1  0  0  0  0
 18 19  1  0  0  0  0
 20 21  1  0  0  0  0
 20 26  1  0  0  0  0
 21 22  1  0  0  0  0
 22 38  1  0  0  0  0
 22 23  1  0  0  0  0
 23 24  2  0  0  0  0
 23 25  1  0  0  0  0
 24 26  1  0  0  0  0
 24 27  1  0  0  0  0
 25 37  2  0  0  0  0
 26 28  1  0  0  0  0
 27 35  2  0  0  0  0
 27 31  1  0  0  0  0
 28 29  1  0  0  0  0
 28 30  1  0  0  0  0
 29 31  1  0  0  0  0
 31 32  1  0  0  0  0
 32 33  1  0  0  0  0
 33 34  1  0  0  0  0
 34 35  1  0  0  0  0
 34 36  1  0  0  0  0
 35 37  1  0  0  0  0
 37 45  1  0  0  0  0
 38 39  1  0  0  0  0
 38 44  1  0  0  0  0
 39 40  1  0  0  0  0
 39 41  1  0  0  0  0
 40 42  1  0  0  0  0
 42 43  1  0  0  0  0
 42 44  1  0  0  0  0
 45 46  2  0  0  0  0
 45 61  1  0  0  0  0
 46 47  1  0  0  0  0
 47 48  1  0  0  0  0
 47 49  2  0  0  0  0
 48 50  1  0  0  0  0
 48 51  1  0  0  0  0
 49 58  1  0  0  0  0
 49 60  1  0  0  0  0
 50 52  1  0  0  0  0
 51 54  1  0  0  0  0
 51 57  1  0  0  0  0
 52 53  1  0  0  0  0
 53 54  1  0  0  0  0
 53 55  1  0  0  0  0
 54 56  1  0  0  0  0
 57 58  1  0  0  0  0
 58 59  1  0  0  0  0
 60 61  2  0  0  0  0
 61 62  1  0  0  0  0
 63 64  2  0  0  0  0
 63 70  1  0  0  0  0
 64 65  1  0  0  0  0
 65 66  2  0  0  0  0
 65 67  1  0  0  0  0
 66 68  1  0  0  0  0
 66 69  1  0  0  0  0
 67 74  2  0  0  0  0
 67 76  1  0  0  0  0
 68 70  2  0  0  0  0
 68 71  1  0  0  0  0
 69 73  2  0  0  0  0
 70 72  1  0  0  0  0
 73 74  1  0  0  0  0
 74 75  1  0  0  0  0
 76 77  2  0  0  0  0
 76 83  1  0  0  0  0
 77 78  1  0  0  0  0
 77 79  1  0  0  0  0
 79 80  2  0  0  0  0
 80 81  1  0  0  0  0
 80 82  1  0  0  0  0
 81 83  2  0  0  0  0
 81 84  1  0  0  0  0
 82 87  2  0  0  0  0
 82 93  1  0  0  0  0
 83 85  1  0  0  0  0
 84 86  2  0  0  0  0
 86 87  1  0  0  0  0
 86 88  1  0  0  0  0
 87 89  1  0  0  0  0
 89 90  2  0  0  0  0
 89 91  1  0  0  0  0
 90 92  1  0  0  0  0
 92 93  2  0  0  0  0
 92 94  1  0  0  0  0
M  CHG  8  66   1  68   1  76   1  77   1  86   1  82   1  92   1  89   1
M  END