
 OpenBabel09222017433D

 53 61  0  0  1  0  0  0  0  0999 V2000
  -10.2600   15.6940   67.5500 C   0  0  0  0  0  0  0  0  0  0  0  0
  -10.5270   16.8390   68.1990 C   0  0  0  0  0  0  0  0  0  0  0  0
  -11.3450   16.9110   69.3090 O   0  0  0  0  0  0  0  0  0  0  0  0
  -11.7470   15.7510   69.9280 C   0  0  0  0  0  0  0  0  0  0  0  0
  -11.5550   14.4810   69.3810 C   0  0  0  0  0  0  0  0  0  0  0  0
  -10.8970   14.4200   68.0260 C   0  0  0  0  0  0  0  0  0  0  0  0
  -12.0000   13.3640   70.1380 C   0  0  0  0  0  0  0  0  0  0  0  0
  -11.8820   11.9740   69.7530 N   0  0  0  0  0  0  0  0  0  0  0  0
  -11.1880   11.5610   68.5460 C   0  0  0  0  0  0  0  0  0  0  0  0
  -12.4710   10.9200   70.4640 C   0  0  0  0  0  0  0  0  0  0  0  0
  -12.3710    9.7440   70.1030 O   0  0  0  0  0  0  0  0  0  0  0  0
  -13.2180   11.2500   71.5710 N   0  0  0  0  0  0  0  0  0  0  0  0
  -12.9780   12.4760   72.2800 C   0  0  0  0  0  0  0  0  0  0  0  0
  -12.5880   13.6170   71.3950 C   0  0  0  0  0  0  0  0  0  0  0  0
  -12.7090   14.9320   71.8820 C   0  0  0  0  0  0  0  0  0  0  0  0
  -12.2950   15.9770   71.1350 N   0  0  0  0  0  0  0  0  0  0  0  0
  -13.8580   10.1770   72.3160 C   0  0  0  0  0  0  0  0  0  0  0  0
   -9.9410   18.1380   67.8200 C   0  0  0  0  0  0  0  0  0  0  0  0
  -10.7920   18.9840   67.1830 N   0  0  0  0  0  0  0  0  0  0  0  0
  -10.3140   20.1930   66.8320 C   0  0  0  0  0  0  0  0  0  0  0  0
   -9.0250   20.6200   67.0960 C   0  0  0  0  0  0  0  0  0  0  0  0
   -8.1550   19.7600   67.7680 C   0  0  0  0  0  0  0  0  0  0  0  0
   -8.6020   18.4720   68.1420 C   0  0  0  0  0  0  0  0  0  0  0  0
   -6.8520   20.1770   68.0900 C   0  0  0  0  0  0  0  0  0  0  0  0
   -7.6890   17.6180   68.8080 C   0  0  0  0  0  0  0  0  0  0  0  0
   -6.3930   18.0500   69.1060 C   0  0  0  0  0  0  0  0  0  0  0  0
   -5.9860   19.3420   68.7900 C   0  0  0  0  0  0  0  0  0  0  0  0
   -5.4380   17.1400   69.7530 C   0  0  0  0  0  0  0  0  0  0  0  0
   -4.7740   19.8810   69.1220 O   0  0  0  0  0  0  0  0  0  0  0  0
   -4.0590   19.2130   70.1750 C   0  0  0  0  0  0  0  0  0  0  0  0
   -4.0600   17.7120   69.9960 C   0  0  0  0  0  0  0  0  0  0  0  0
   -3.0660   17.0020   70.0280 O   0  0  0  0  0  0  0  0  0  0  0  0
   -5.7330   16.0040   70.0840 O   0  0  0  0  0  0  0  0  0  0  0  0
   -4.5200   19.6860   71.5340 C   0  0  0  0  0  0  0  0  0  0  0  0
   -5.4540   18.8340   72.2280 O   0  0  0  0  0  0  0  0  0  0  0  0
   -3.5300   20.2650   72.3940 O   0  0  0  0  0  0  0  0  0  0  0  0
   -4.4850   21.0870   71.9250 C   0  0  0  0  0  0  0  0  0  0  0  0
   -4.3770   22.1190   71.2830 O   0  0  0  0  0  0  0  0  0  0  0  0
   -9.4340   15.6840   66.4370 O   0  0  0  0  0  0  0  0  0  0  0  0
   -9.6620   14.7350   65.3850 C   0  0  0  0  0  0  0  0  0  0  0  0
   -9.7440   13.4180   65.9210 O   0  0  0  0  0  0  0  0  0  0  0  0
  -10.1170   12.4370   65.0200 C   0  0  0  0  0  0  0  0  0  0  0  0
   -9.6770   11.1780   65.1270 C   0  0  0  0  0  0  0  0  0  0  0  0
  -11.0920   12.7230   63.9360 C   0  0  0  0  0  0  0  0  0  0  0  0
   -8.7990   10.7690   66.0970 O   0  0  0  0  0  0  0  0  0  0  0  0
  -11.7100   14.0940   64.0350 C   0  0  0  0  0  0  0  0  0  0  0  0
  -11.3650   11.9570   63.0280 O   0  0  0  0  0  0  0  0  0  0  0  0
  -10.9160   15.2100   64.6580 C   0  0  0  0  0  0  0  0  0  0  0  0
  -12.8430   14.2870   63.6200 O   0  0  0  0  0  0  0  0  0  0  0  0
  -11.2290   16.3790   64.4690 O   0  0  0  0  0  0  0  0  0  0  0  0
  -13.2310   15.2390   73.2700 C   0  0  0  0  0  0  0  0  0  0  0  0
  -12.2980   15.2430   74.3620 O   0  0  0  0  0  0  0  0  0  0  0  0
  -12.8410   16.4830   73.8720 O   0  0  0  0  0  0  0  0  0  0  0  0
  1 39  1  0  0  0  0
  1  2  2  0  0  0  0
  1  6  1  0  0  0  0
  2  3  1  0  0  0  0
  2 18  1  0  0  0  0
  3  4  1  0  0  0  0
  4  5  2  0  0  0  0
  4 16  1  0  0  0  0
  5  6  1  0  0  0  0
  5  7  1  0  0  0  0
  7  8  1  0  0  0  0
  7 14  2  0  0  0  0
  8  9  1  0  0  0  0
  8 10  1  0  0  0  0
 10 11  2  0  0  0  0
 10 12  1  0  0  0  0
 12 13  1  0  0  0  0
 12 17  1  0  0  0  0
 13 14  1  0  0  0  0
 14 15  1  0  0  0  0
 15 16  2  0  0  0  0
 15 51  1  0  0  0  0
 18 19  2  0  0  0  0
 18 23  1  0  0  0  0
 19 20  1  0  0  0  0
 20 21  2  0  0  0  0
 21 22  1  0  0  0  0
 22 23  2  0  0  0  0
 22 24  1  0  0  0  0
 23 25  1  0  0  0  0
 24 27  2  0  0  0  0
 25 26  2  0  0  0  0
 26 27  1  0  0  0  0
 26 28  1  0  0  0  0
 27 29  1  0  0  0  0
 28 31  1  0  0  0  0
 28 33  2  0  0  0  0
 29 30  1  0  0  0  0
 30 31  1  0  0  0  0
 30 34  1  0  0  0  0
 31 32  2  0  0  0  0
 34 35  1  0  0  0  0
 34 36  1  0  0  0  0
 34 37  1  0  0  0  0
 36 37  1  0  0  0  0
 37 38  2  0  0  0  0
 39 40  1  0  0  0  0
 40 41  1  0  0  0  0
 40 48  1  0  0  0  0
 41 42  1  0  0  0  0
 42 43  2  0  0  0  0
 42 44  1  0  0  0  0
 43 45  1  0  0  0  0
 44 46  1  0  0  0  0
 44 47  2  0  0  0  0
 46 48  1  0  0  0  0
 46 49  2  0  0  0  0
 48 50  2  0  0  0  0
 51 52  1  0  0  0  0
 51 53  1  0  0  0  0
 52 53  1  0  0  0  0
M  END
