
 OpenBabel09262021313D

 52 60  0  0  1  0  0  0  0  0999 V2000
  -10.6240   15.5730   67.3300 C   0  0  0  0  0  0  0  0  0  0  0  0
  -10.7930   16.7740   67.9260 C   0  0  0  0  0  0  0  0  0  0  0  0
  -11.5520   16.9580   69.0790 O   0  0  0  0  0  0  0  0  0  0  0  0
  -12.0000   15.8400   69.7720 C   0  0  0  0  0  0  0  0  0  0  0  0
  -11.8750   14.6050   69.2620 C   0  0  0  0  0  0  0  0  0  0  0  0
  -11.2630   14.3400   67.9270 C   0  0  0  0  0  0  0  0  0  0  0  0
  -12.2810   13.4540   70.1120 C   0  0  0  0  0  0  0  0  0  0  0  0
  -12.1820   12.2440   69.6690 N   0  0  0  0  0  0  0  0  0  0  0  0
  -12.5100   11.1920   70.5000 C   0  0  0  0  0  0  0  0  0  0  0  0
  -12.4080   10.0560   70.0560 O   0  0  0  0  0  0  0  0  0  0  0  0
  -12.9360   11.3560   71.8050 N   0  0  0  0  0  0  0  0  0  0  0  0
  -13.0480   12.5510   72.2730 C   0  0  0  0  0  0  0  0  0  0  0  0
  -12.7550   13.7490   71.4850 C   0  0  0  0  0  0  0  0  0  0  0  0
  -12.8590   15.0280   71.9000 C   0  0  0  0  0  0  0  0  0  0  0  0
  -12.5390   16.0520   71.0170 N   0  0  0  0  0  0  0  0  0  0  0  0
  -10.1420   18.0020   67.4340 C   0  0  0  0  0  0  0  0  0  0  0  0
  -10.9440   18.7770   66.6720 N   0  0  0  0  0  0  0  0  0  0  0  0
  -10.4220   19.9400   66.2780 C   0  0  0  0  0  0  0  0  0  0  0  0
   -9.1980   20.3880   66.5700 N   0  0  0  0  0  0  0  0  0  0  0  0
   -8.4020   19.6060   67.3190 C   0  0  0  0  0  0  0  0  0  0  0  0
   -8.8210   18.3460   67.7730 C   0  0  0  0  0  0  0  0  0  0  0  0
   -7.1160   20.0360   67.6780 C   0  0  0  0  0  0  0  0  0  0  0  0
   -7.9230   17.5320   68.5140 C   0  0  0  0  0  0  0  0  0  0  0  0
   -6.6460   17.9970   68.8430 C   0  0  0  0  0  0  0  0  0  0  0  0
   -5.7080   17.1550   69.5870 C   0  0  0  0  0  0  0  0  0  0  0  0
   -6.2460   19.2600   68.4510 C   0  0  0  0  0  0  0  0  0  0  0  0
   -5.9080   15.9610   69.7430 O   0  0  0  0  0  0  0  0  0  0  0  0
   -4.4940   17.8290   70.1860 C   0  0  0  0  0  0  0  0  0  0  0  0
   -3.7450   17.2080   70.9300 O   0  0  0  0  0  0  0  0  0  0  0  0
   -4.3740   19.3110   69.9100 C   0  0  0  0  0  0  0  0  0  0  0  0
   -5.0220   19.8000   68.7310 O   0  0  0  0  0  0  0  0  0  0  0  0
   -6.6860   21.2810   67.2690 O   0  0  0  0  0  0  0  0  0  0  0  0
   -4.8110   20.1230   71.1020 C   0  0  0  0  0  0  0  0  0  0  0  0
   -6.2360   20.2360   71.3150 O   0  0  0  0  0  0  0  0  0  0  0  0
   -4.0390   19.9880   72.2890 O   0  0  0  0  0  0  0  0  0  0  0  0
   -3.9500   21.1620   71.6400 C   0  0  0  0  0  0  0  0  0  0  0  0
   -2.9750   21.7340   71.1820 O   0  0  0  0  0  0  0  0  0  0  0  0
   -9.7820   15.4330   66.2300 O   0  0  0  0  0  0  0  0  0  0  0  0
  -10.0130   14.3130   65.3730 C   0  0  0  0  0  0  0  0  0  0  0  0
  -10.1120   13.1100   66.1370 O   0  0  0  0  0  0  0  0  0  0  0  0
  -10.2060   11.9650   65.3670 C   0  0  0  0  0  0  0  0  0  0  0  0
   -9.7420   10.7920   65.8140 C   0  0  0  0  0  0  0  0  0  0  0  0
  -10.8750   11.9920   64.0380 C   0  0  0  0  0  0  0  0  0  0  0  0
   -9.1420   10.6520   67.0380 O   0  0  0  0  0  0  0  0  0  0  0  0
  -11.6550   13.2670   63.7850 C   0  0  0  0  0  0  0  0  0  0  0  0
  -10.8010   11.1010   63.2100 O   0  0  0  0  0  0  0  0  0  0  0  0
  -11.3020   14.5010   64.5840 C   0  0  0  0  0  0  0  0  0  0  0  0
  -12.5530   13.2870   62.9590 O   0  0  0  0  0  0  0  0  0  0  0  0
  -11.9950   15.5050   64.5350 O   0  0  0  0  0  0  0  0  0  0  0  0
  -13.2720   15.4520   73.2610 C   0  0  0  0  0  0  0  0  0  0  0  0
  -12.4420   15.2010   74.4070 O   0  0  0  0  0  0  0  0  0  0  0  0
  -12.6330   16.5500   73.9400 O   0  0  0  0  0  0  0  0  0  0  0  0
  1 38  1  0  0  0  0
  1  2  2  0  0  0  0
  1  6  1  0  0  0  0
  2  3  1  0  0  0  0
  2 16  1  0  0  0  0
  3  4  1  0  0  0  0
  4  5  2  0  0  0  0
  4 15  1  0  0  0  0
  5  6  1  0  0  0  0
  5  7  1  0  0  0  0
  7  8  2  0  0  0  0
  7 13  1  0  0  0  0
  8  9  1  0  0  0  0
  9 10  2  0  0  0  0
  9 11  1  0  0  0  0
 11 12  2  0  0  0  0
 12 13  1  0  0  0  0
 13 14  2  0  0  0  0
 14 15  1  0  0  0  0
 14 50  1  0  0  0  0
 16 17  2  0  0  0  0
 16 21  1  0  0  0  0
 17 18  1  0  0  0  0
 18 19  2  0  0  0  0
 19 20  1  0  0  0  0
 20 21  2  0  0  0  0
 20 22  1  0  0  0  0
 21 23  1  0  0  0  0
 22 26  2  0  0  0  0
 22 32  1  0  0  0  0
 23 24  2  0  0  0  0
 24 25  1  0  0  0  0
 24 26  1  0  0  0  0
 25 27  2  0  0  0  0
 25 28  1  0  0  0  0
 26 31  1  0  0  0  0
 28 29  2  0  0  0  0
 28 30  1  0  0  0  0
 30 31  1  0  0  0  0
 30 33  1  0  0  0  0
 33 34  1  0  0  0  0
 33 35  1  0  0  0  0
 33 36  1  0  0  0  0
 35 36  1  0  0  0  0
 36 37  2  0  0  0  0
 38 39  1  0  0  0  0
 39 40  1  0  0  0  0
 39 47  1  0  0  0  0
 40 41  1  0  0  0  0
 41 42  2  0  0  0  0
 41 43  1  0  0  0  0
 42 44  1  0  0  0  0
 43 45  1  0  0  0  0
 43 46  2  0  0  0  0
 45 47  1  0  0  0  0
 45 48  2  0  0  0  0
 47 49  2  0  0  0  0
 50 51  1  0  0  0  0
 50 52  1  0  0  0  0
 51 52  1  0  0  0  0
M  END
