
 OpenBabel10192022443D

 51 59  0  0  1  0  0  0  0  0999 V2000
  -10.6930   15.4500   67.4060 C   0  0  0  0  0  0  0  0  0  0  0  0
  -10.6210   16.6260   68.0680 C   0  0  0  0  0  0  0  0  0  0  0  0
  -11.0630   16.8020   69.3750 O   0  0  0  0  0  0  0  0  0  0  0  0
  -11.6120   15.7240   70.0520 C   0  0  0  0  0  0  0  0  0  0  0  0
  -11.6700   14.5020   69.4990 C   0  0  0  0  0  0  0  0  0  0  0  0
  -11.2080   14.2170   68.1100 C   0  0  0  0  0  0  0  0  0  0  0  0
  -12.2620   13.3960   70.3020 C   0  0  0  0  0  0  0  0  0  0  0  0
  -12.3250   12.1960   69.8280 N   0  0  0  0  0  0  0  0  0  0  0  0
  -12.8870   11.1970   70.5990 C   0  0  0  0  0  0  0  0  0  0  0  0
  -12.9330   10.0660   70.1300 O   0  0  0  0  0  0  0  0  0  0  0  0
  -13.4040   11.4060   71.8630 N   0  0  0  0  0  0  0  0  0  0  0  0
  -13.3500   12.5930   72.3610 C   0  0  0  0  0  0  0  0  0  0  0  0
  -12.7750   13.7310   71.6480 C   0  0  0  0  0  0  0  0  0  0  0  0
  -12.6980   14.9970   72.1050 C   0  0  0  0  0  0  0  0  0  0  0  0
  -12.1090   15.9670   71.3080 N   0  0  0  0  0  0  0  0  0  0  0  0
  -10.0810   17.8560   67.4520 C   0  0  0  0  0  0  0  0  0  0  0  0
  -10.9120   18.4120   66.5380 N   0  0  0  0  0  0  0  0  0  0  0  0
  -10.6320   19.5840   65.9290 C   0  0  0  0  0  0  0  0  0  0  0  0
   -9.3350   20.5830   66.2630 P   0  0  0  0  0  0  0  0  0  0  0  0
   -8.4220   19.6380   67.3310 C   0  0  0  0  0  0  0  0  0  0  0  0
   -8.8230   18.3770   67.8140 C   0  0  0  0  0  0  0  0  0  0  0  0
   -7.1870   20.1970   67.7310 C   0  0  0  0  0  0  0  0  0  0  0  0
   -7.9080   17.6770   68.6360 C   0  0  0  0  0  0  0  0  0  0  0  0
   -6.6610   18.2210   68.9760 C   0  0  0  0  0  0  0  0  0  0  0  0
   -6.3130   19.4960   68.5620 C   0  0  0  0  0  0  0  0  0  0  0  0
   -5.6860   17.4070   69.7050 C   0  0  0  0  0  0  0  0  0  0  0  0
   -5.1370   20.1200   68.8640 O   0  0  0  0  0  0  0  0  0  0  0  0
   -4.3810   19.5820   69.9520 C   0  0  0  0  0  0  0  0  0  0  0  0
   -4.4100   18.0820   70.1410 C   0  0  0  0  0  0  0  0  0  0  0  0
   -3.5020   17.4400   70.6510 O   0  0  0  0  0  0  0  0  0  0  0  0
   -5.8700   16.2160   69.9090 O   0  0  0  0  0  0  0  0  0  0  0  0
   -4.7370   20.2820   71.2240 C   0  0  0  0  0  0  0  0  0  0  0  0
   -6.1210   20.2060   71.6430 O   0  0  0  0  0  0  0  0  0  0  0  0
   -3.7660   20.1570   72.2680 O   0  0  0  0  0  0  0  0  0  0  0  0
   -3.9650   21.3950   71.7770 C   0  0  0  0  0  0  0  0  0  0  0  0
   -4.3360   22.4010   72.3380 O   0  0  0  0  0  0  0  0  0  0  0  0
  -10.2460   15.3380   66.0940 O   0  0  0  0  0  0  0  0  0  0  0  0
   -9.9730   14.0220   65.5900 C   0  0  0  0  0  0  0  0  0  0  0  0
   -9.6320   13.1290   66.6490 O   0  0  0  0  0  0  0  0  0  0  0  0
   -9.3740   11.8280   66.2640 C   0  0  0  0  0  0  0  0  0  0  0  0
   -8.4490   11.0870   66.8890 C   0  0  0  0  0  0  0  0  0  0  0  0
  -10.1450   11.1710   65.1740 C   0  0  0  0  0  0  0  0  0  0  0  0
   -7.6640   11.5670   67.9030 O   0  0  0  0  0  0  0  0  0  0  0  0
  -11.1080   12.0830   64.4500 C   0  0  0  0  0  0  0  0  0  0  0  0
  -10.0190    9.9990   64.8590 O   0  0  0  0  0  0  0  0  0  0  0  0
  -11.2100   13.5300   64.8520 C   0  0  0  0  0  0  0  0  0  0  0  0
  -11.7770   11.6570   63.5210 O   0  0  0  0  0  0  0  0  0  0  0  0
  -12.1940   14.1910   64.5530 O   0  0  0  0  0  0  0  0  0  0  0  0
  -13.2050   15.4530   73.4200 C   0  0  0  0  0  0  0  0  0  0  0  0
  -12.4080   15.3560   74.6090 O   0  0  0  0  0  0  0  0  0  0  0  0
  -12.7180   16.6490   74.0540 O   0  0  0  0  0  0  0  0  0  0  0  0
  1 37  1  0  0  0  0
  1  2  2  0  0  0  0
  1  6  1  0  0  0  0
  2  3  1  0  0  0  0
  2 16  1  0  0  0  0
  3  4  1  0  0  0  0
  4  5  2  0  0  0  0
  4 15  1  0  0  0  0
  5  6  1  0  0  0  0
  5  7  1  0  0  0  0
  7  8  2  0  0  0  0
  7 13  1  0  0  0  0
  8  9  1  0  0  0  0
  9 10  2  0  0  0  0
  9 11  1  0  0  0  0
 11 12  2  0  0  0  0
 12 13  1  0  0  0  0
 13 14  2  0  0  0  0
 14 15  1  0  0  0  0
 14 49  1  0  0  0  0
 16 17  2  0  0  0  0
 16 21  1  0  0  0  0
 17 18  1  0  0  0  0
 18 19  2  0  0  0  0
 19 20  1  0  0  0  0
 20 21  2  0  0  0  0
 20 22  1  0  0  0  0
 21 23  1  0  0  0  0
 22 25  2  0  0  0  0
 23 24  2  0  0  0  0
 24 25  1  0  0  0  0
 24 26  1  0  0  0  0
 25 27  1  0  0  0  0
 26 29  1  0  0  0  0
 26 31  2  0  0  0  0
 27 28  1  0  0  0  0
 28 29  1  0  0  0  0
 28 32  1  0  0  0  0
 29 30  2  0  0  0  0
 32 33  1  0  0  0  0
 32 34  1  0  0  0  0
 32 35  1  0  0  0  0
 34 35  1  0  0  0  0
 35 36  2  0  0  0  0
 37 38  1  0  0  0  0
 38 39  1  0  0  0  0
 38 46  1  0  0  0  0
 39 40  1  0  0  0  0
 40 41  2  0  0  0  0
 40 42  1  0  0  0  0
 41 43  1  0  0  0  0
 42 44  1  0  0  0  0
 42 45  2  0  0  0  0
 44 46  1  0  0  0  0
 44 47  2  0  0  0  0
 46 48  2  0  0  0  0
 49 50  1  0  0  0  0
 49 51  1  0  0  0  0
 50 51  1  0  0  0  0
M  END
