
 OpenBabel09222023073D

 53 62  0  0  1  0  0  0  0  0999 V2000
  -10.4970   15.6650   67.2710 C   0  0  0  0  0  0  0  0  0  0  0  0
  -10.5800   16.8550   67.8970 C   0  0  0  0  0  0  0  0  0  0  0  0
  -11.1610   17.0440   69.1380 O   0  0  0  0  0  0  0  0  0  0  0  0
  -11.6170   15.9480   69.8350 C   0  0  0  0  0  0  0  0  0  0  0  0
  -11.5140   14.6590   69.3400 C   0  0  0  0  0  0  0  0  0  0  0  0
  -10.9770   14.4210   67.9630 C   0  0  0  0  0  0  0  0  0  0  0  0
  -11.9730   13.6280   70.1610 C   0  0  0  0  0  0  0  0  0  0  0  0
  -11.8970   12.2900   69.7500 N   0  0  0  0  0  0  0  0  0  0  0  0
  -12.4180   11.2400   70.4340 C   0  0  0  0  0  0  0  0  0  0  0  0
  -12.3520   10.0960   69.9960 O   0  0  0  0  0  0  0  0  0  0  0  0
  -13.0450   11.5150   71.6020 N   0  0  0  0  0  0  0  0  0  0  0  0
  -12.9360   12.7720   72.2980 C   0  0  0  0  0  0  0  0  0  0  0  0
  -12.5250   13.9070   71.4120 C   0  0  0  0  0  0  0  0  0  0  0  0
  -12.6170   15.2410   71.8280 C   0  0  0  0  0  0  0  0  0  0  0  0
  -12.1670   16.2440   71.0320 N   0  0  0  0  0  0  0  0  0  0  0  0
  -10.0160   18.0840   67.3130 C   0  0  0  0  0  0  0  0  0  0  0  0
  -10.9240   18.8330   66.6340 N   0  0  0  0  0  0  0  0  0  0  0  0
  -10.5080   20.0110   66.1370 C   0  0  0  0  0  0  0  0  0  0  0  0
   -9.2220   20.4960   66.2870 C   0  0  0  0  0  0  0  0  0  0  0  0
   -8.2840   19.7240   66.9820 C   0  0  0  0  0  0  0  0  0  0  0  0
   -8.6690   18.4680   67.5030 C   0  0  0  0  0  0  0  0  0  0  0  0
   -6.9720   20.1940   67.1790 C   0  0  0  0  0  0  0  0  0  0  0  0
   -7.6910   17.6920   68.1690 C   0  0  0  0  0  0  0  0  0  0  0  0
   -6.3860   18.1710   68.3350 C   0  0  0  0  0  0  0  0  0  0  0  0
   -6.0310   19.4320   67.8740 C   0  0  0  0  0  0  0  0  0  0  0  0
   -5.3740   17.3300   68.9800 C   0  0  0  0  0  0  0  0  0  0  0  0
   -4.8020   20.0060   68.0380 O   0  0  0  0  0  0  0  0  0  0  0  0
   -3.9240   19.4100   68.9990 C   0  0  0  0  0  0  0  0  0  0  0  0
   -3.9810   17.9080   69.0660 C   0  0  0  0  0  0  0  0  0  0  0  0
   -3.0050   17.1970   69.2470 O   0  0  0  0  0  0  0  0  0  0  0  0
   -5.6260   16.2270   69.4340 O   0  0  0  0  0  0  0  0  0  0  0  0
   -4.0940   20.0330   70.3290 C   0  0  0  0  0  0  0  0  0  0  0  0
   -5.0740   21.1840   70.4280 O   0  0  0  0  0  0  0  0  0  0  0  0
   -4.6240   21.1430   71.8740 C   0  0  0  0  0  0  0  0  0  0  0  0
   -3.1390   21.0700   71.1040 C   0  0  0  0  0  0  0  0  0  0  0  0
   -4.9280   19.5200   71.6160 C   0  0  0  0  0  0  0  0  0  0  0  0
   -1.9910   21.3880   71.2100 O   0  0  0  0  0  0  0  0  0  0  0  0
   -5.3380   18.5300   72.1440 O   0  0  0  0  0  0  0  0  0  0  0  0
   -9.8870   15.5520   66.0280 O   0  0  0  0  0  0  0  0  0  0  0  0
   -9.9960   14.2890   65.3640 C   0  0  0  0  0  0  0  0  0  0  0  0
   -9.7510   13.2050   66.2610 O   0  0  0  0  0  0  0  0  0  0  0  0
   -9.7360   11.9810   65.6160 C   0  0  0  0  0  0  0  0  0  0  0  0
   -8.8060   11.0590   65.8890 C   0  0  0  0  0  0  0  0  0  0  0  0
  -10.7910   11.6680   64.6180 C   0  0  0  0  0  0  0  0  0  0  0  0
   -7.7900   11.2830   66.7810 O   0  0  0  0  0  0  0  0  0  0  0  0
  -11.8300   12.7620   64.5230 C   0  0  0  0  0  0  0  0  0  0  0  0
  -10.8130   10.6830   63.9030 O   0  0  0  0  0  0  0  0  0  0  0  0
  -11.3890   14.1890   64.7470 C   0  0  0  0  0  0  0  0  0  0  0  0
  -12.9990   12.4880   64.3030 O   0  0  0  0  0  0  0  0  0  0  0  0
  -12.0830   15.1230   64.3720 O   0  0  0  0  0  0  0  0  0  0  0  0
  -13.2400   15.6160   73.1500 C   0  0  0  0  0  0  0  0  0  0  0  0
  -12.4610   15.3930   74.3350 O   0  0  0  0  0  0  0  0  0  0  0  0
  -12.7010   16.7370   73.8670 O   0  0  0  0  0  0  0  0  0  0  0  0
  1 39  1  0  0  0  0
  1  2  2  0  0  0  0
  1  6  1  0  0  0  0
  2  3  1  0  0  0  0
  2 16  1  0  0  0  0
  3  4  1  0  0  0  0
  4  5  2  0  0  0  0
  4 15  1  0  0  0  0
  5  6  1  0  0  0  0
  5  7  1  0  0  0  0
  7  8  1  0  0  0  0
  7 13  2  0  0  0  0
  8  9  1  0  0  0  0
  9 10  2  0  0  0  0
  9 11  1  0  0  0  0
 11 12  1  0  0  0  0
 12 13  1  0  0  0  0
 13 14  1  0  0  0  0
 14 15  2  0  0  0  0
 14 51  1  0  0  0  0
 16 17  2  0  0  0  0
 16 21  1  0  0  0  0
 17 18  1  0  0  0  0
 18 19  2  0  0  0  0
 19 20  1  0  0  0  0
 20 21  2  0  0  0  0
 20 22  1  0  0  0  0
 21 23  1  0  0  0  0
 22 25  2  0  0  0  0
 23 24  2  0  0  0  0
 24 25  1  0  0  0  0
 24 26  1  0  0  0  0
 25 27  1  0  0  0  0
 26 29  1  0  0  0  0
 26 31  2  0  0  0  0
 27 28  1  0  0  0  0
 28 29  1  0  0  0  0
 28 32  1  0  0  0  0
 29 30  2  0  0  0  0
 32 33  1  0  0  0  0
 32 35  1  0  0  0  0
 32 36  1  0  0  0  0
 33 34  1  0  0  0  0
 34 35  1  0  0  0  0
 34 36  1  0  0  0  0
 35 37  2  0  0  0  0
 36 38  2  0  0  0  0
 39 40  1  0  0  0  0
 40 41  1  0  0  0  0
 40 48  1  0  0  0  0
 41 42  1  0  0  0  0
 42 43  2  0  0  0  0
 42 44  1  0  0  0  0
 43 45  1  0  0  0  0
 44 46  1  0  0  0  0
 44 47  2  0  0  0  0
 46 48  1  0  0  0  0
 46 49  2  0  0  0  0
 48 50  2  0  0  0  0
 51 52  1  0  0  0  0
 51 53  1  0  0  0  0
 52 53  1  0  0  0  0
M  END
