
 OpenBabel11152012503D

 53 61  0  0  1  0  0  0  0  0999 V2000
  -11.0610   15.8650   67.5360 C   0  0  0  0  0  0  0  0  0  0  0  0
  -10.6280   16.9540   68.2100 C   0  0  0  0  0  0  0  0  0  0  0  0
  -10.8230   17.1180   69.5910 O   0  0  0  0  0  0  0  0  0  0  0  0
  -11.5600   16.1680   70.3020 C   0  0  0  0  0  0  0  0  0  0  0  0
  -11.9380   15.0150   69.7270 C   0  0  0  0  0  0  0  0  0  0  0  0
  -11.6620   14.7120   68.2910 C   0  0  0  0  0  0  0  0  0  0  0  0
  -12.7350   13.9750   70.4490 C   0  0  0  0  0  0  0  0  0  0  0  0
  -11.9340   12.8150   70.5590 O   0  0  0  0  0  0  0  0  0  0  0  0
  -12.4880   11.7420   71.1830 C   0  0  0  0  0  0  0  0  0  0  0  0
  -12.0420   10.6160   71.0390 O   0  0  0  0  0  0  0  0  0  0  0  0
  -13.5430   12.0060   71.9930 O   0  0  0  0  0  0  0  0  0  0  0  0
  -13.8960   13.3110   72.4440 C   0  0  0  0  0  0  0  0  0  0  0  0
  -13.0670   14.3820   71.8290 C   0  0  0  0  0  0  0  0  0  0  0  0
  -12.6600   15.5580   72.3650 C   0  0  0  0  0  0  0  0  0  0  0  0
  -11.8900   16.4440   71.6110 O   0  0  0  0  0  0  0  0  0  0  0  0
  -15.2200   13.5830   72.0350 O   0  0  0  0  0  0  0  0  0  0  0  0
   -9.9470   18.0990   67.5600 C   0  0  0  0  0  0  0  0  0  0  0  0
  -10.7430   18.8180   66.7480 N   0  0  0  0  0  0  0  0  0  0  0  0
  -10.2650   19.8840   66.1740 N   0  0  0  0  0  0  0  0  0  0  0  0
   -9.0420   20.3170   66.4050 N   0  0  0  0  0  0  0  0  0  0  0  0
   -8.2100   19.6560   67.2250 C   0  0  0  0  0  0  0  0  0  0  0  0
   -8.6260   18.4750   67.8360 C   0  0  0  0  0  0  0  0  0  0  0  0
   -6.9170   20.1390   67.5220 C   0  0  0  0  0  0  0  0  0  0  0  0
   -7.7270   17.7770   68.6800 C   0  0  0  0  0  0  0  0  0  0  0  0
   -6.4490   18.2860   68.9500 C   0  0  0  0  0  0  0  0  0  0  0  0
   -5.5420   17.5450   69.8270 C   0  0  0  0  0  0  0  0  0  0  0  0
   -6.0400   19.4850   68.3990 C   0  0  0  0  0  0  0  0  0  0  0  0
   -5.8930   16.5050   70.3590 O   0  0  0  0  0  0  0  0  0  0  0  0
   -4.1730   18.1340   70.0580 C   0  0  0  0  0  0  0  0  0  0  0  0
   -3.2760   17.4510   70.5300 O   0  0  0  0  0  0  0  0  0  0  0  0
   -4.0630   19.6120   69.7530 C   0  0  0  0  0  0  0  0  0  0  0  0
   -4.8360   20.0860   68.6400 O   0  0  0  0  0  0  0  0  0  0  0  0
   -6.5040   21.3230   66.9490 O   0  0  0  0  0  0  0  0  0  0  0  0
   -4.3500   20.4380   70.9790 C   0  0  0  0  0  0  0  0  0  0  0  0
   -5.7040   20.9180   71.1360 O   0  0  0  0  0  0  0  0  0  0  0  0
   -3.7430   19.9910   72.1950 O   0  0  0  0  0  0  0  0  0  0  0  0
   -3.2920   21.1410   71.6830 C   0  0  0  0  0  0  0  0  0  0  0  0
   -2.1710   21.4860   71.3460 O   0  0  0  0  0  0  0  0  0  0  0  0
  -10.9460   15.7660   66.1560 O   0  0  0  0  0  0  0  0  0  0  0  0
  -10.6750   14.4760   65.5570 C   0  0  0  0  0  0  0  0  0  0  0  0
   -9.9770   13.6250   66.4660 O   0  0  0  0  0  0  0  0  0  0  0  0
   -9.6510   12.3560   66.0240 C   0  0  0  0  0  0  0  0  0  0  0  0
   -8.5720   11.7320   66.5120 C   0  0  0  0  0  0  0  0  0  0  0  0
  -10.5020   11.6040   65.0580 C   0  0  0  0  0  0  0  0  0  0  0  0
   -7.7390   12.3200   67.4290 O   0  0  0  0  0  0  0  0  0  0  0  0
  -11.5930   12.4270   64.4120 C   0  0  0  0  0  0  0  0  0  0  0  0
  -10.3740   10.4160   64.8160 O   0  0  0  0  0  0  0  0  0  0  0  0
  -11.9070   13.7860   64.9680 C   0  0  0  0  0  0  0  0  0  0  0  0
  -12.2200   12.0010   63.4550 O   0  0  0  0  0  0  0  0  0  0  0  0
  -13.0580   14.1970   65.0080 O   0  0  0  0  0  0  0  0  0  0  0  0
  -13.0180   16.0090   73.7330 C   0  0  0  0  0  0  0  0  0  0  0  0
  -12.2920   15.5260   74.8770 O   0  0  0  0  0  0  0  0  0  0  0  0
  -12.1620   16.8990   74.4620 O   0  0  0  0  0  0  0  0  0  0  0  0
  1 39  1  0  0  0  0
  1  2  2  0  0  0  0
  1  6  1  0  0  0  0
  2  3  1  0  0  0  0
  2 17  1  0  0  0  0
  3  4  1  0  0  0  0
  4  5  2  0  0  0  0
  4 15  1  0  0  0  0
  5  6  1  0  0  0  0
  5  7  1  0  0  0  0
  7  8  1  0  0  0  0
  7 13  1  0  0  0  0
  8  9  1  0  0  0  0
  9 10  2  0  0  0  0
  9 11  1  0  0  0  0
 11 12  1  0  0  0  0
 12 13  1  0  0  0  0
 12 16  1  0  0  0  0
 13 14  2  0  0  0  0
 14 15  1  0  0  0  0
 14 51  1  0  0  0  0
 17 18  2  0  0  0  0
 17 22  1  0  0  0  0
 18 19  1  0  0  0  0
 19 20  2  0  0  0  0
 20 21  1  0  0  0  0
 21 22  2  0  0  0  0
 21 23  1  0  0  0  0
 22 24  1  0  0  0  0
 23 27  2  0  0  0  0
 23 33  1  0  0  0  0
 24 25  2  0  0  0  0
 25 26  1  0  0  0  0
 25 27  1  0  0  0  0
 26 28  2  0  0  0  0
 26 29  1  0  0  0  0
 27 32  1  0  0  0  0
 29 30  2  0  0  0  0
 29 31  1  0  0  0  0
 31 32  1  0  0  0  0
 31 34  1  0  0  0  0
 34 35  1  0  0  0  0
 34 36  1  0  0  0  0
 34 37  1  0  0  0  0
 36 37  1  0  0  0  0
 37 38  2  0  0  0  0
 39 40  1  0  0  0  0
 40 41  1  0  0  0  0
 40 48  1  0  0  0  0
 41 42  1  0  0  0  0
 42 43  2  0  0  0  0
 42 44  1  0  0  0  0
 43 45  1  0  0  0  0
 44 46  1  0  0  0  0
 44 47  2  0  0  0  0
 46 48  1  0  0  0  0
 46 49  2  0  0  0  0
 48 50  2  0  0  0  0
 51 52  1  0  0  0  0
 51 53  1  0  0  0  0
 52 53  1  0  0  0  0
M  CHG  1  15   1
M  END