
 OpenBabel05142109403D

 51 61  0  0  1  0  0  0  0  0999 V2000
  -10.9150    8.9100   69.5640 C   0  0  0  0  0  0  0  0  0  0  0  0
  -11.7230    9.2740   70.6460 C   0  0  0  0  0  0  0  0  0  0  0  0
  -12.1790   10.5960   70.8690 C   0  0  0  0  0  0  0  0  0  0  0  0
  -12.9780   10.7920   72.1330 C   0  0  0  0  0  0  0  0  0  0  0  0
  -11.9410   11.6280   69.9040 C   0  0  0  0  0  0  0  0  0  0  0  0
  -11.1980   11.2440   68.7450 C   0  0  0  0  0  0  0  0  0  0  0  0
  -10.5780    9.9730   68.7000 C   0  0  0  0  0  0  0  0  0  0  0  0
   -9.3070    9.9240   67.9420 C   0  0  0  0  0  0  0  0  0  0  0  0
   -8.3570    9.3050   68.4310 O   0  0  0  0  0  0  0  0  0  0  0  0
   -9.1740   10.7320   66.6400 C   0  0  0  0  0  0  0  0  0  0  0  0
  -10.3150   11.7430   66.3870 C   0  0  0  0  0  0  0  0  0  0  0  0
  -11.0750   12.1210   67.6440 C   0  0  0  0  0  0  0  0  0  0  0  0
  -11.7400   13.3330   67.6580 C   0  0  0  0  0  0  0  0  0  0  0  0
  -12.3590   13.7640   68.8170 C   0  0  0  0  0  0  0  0  0  0  0  0
  -12.3800   13.0010   70.0050 C   0  0  0  0  0  0  0  0  0  0  0  0
  -11.8250   14.1810   66.6020 O   0  0  0  0  0  0  0  0  0  0  0  0
  -10.8670   14.0600   65.5470 C   0  0  0  0  0  0  0  0  0  0  0  0
   -9.7520   13.0250   65.7400 C   0  0  0  0  0  0  0  0  0  0  0  0
   -8.6250   13.5110   66.6210 C   0  0  0  0  0  0  0  0  0  0  0  0
   -7.7460   12.5500   67.1010 C   0  0  0  0  0  0  0  0  0  0  0  0
   -7.8390   11.2670   66.6590 O   0  0  0  0  0  0  0  0  0  0  0  0
   -6.7420   12.8820   67.9950 C   0  0  0  0  0  0  0  0  0  0  0  0
   -6.6380   14.1980   68.4470 C   0  0  0  0  0  0  0  0  0  0  0  0
   -7.5090   15.1940   67.9690 C   0  0  0  0  0  0  0  0  0  0  0  0
   -8.4920   14.8490   67.0200 C   0  0  0  0  0  0  0  0  0  0  0  0
   -9.3290   15.8520   66.5200 C   0  0  0  0  0  0  0  0  0  0  0  0
  -10.3080   15.4880   65.4770 C   0  0  0  0  0  0  0  0  0  0  0  0
  -10.6800   16.3140   64.6440 O   0  0  0  0  0  0  0  0  0  0  0  0
   -9.2710   17.1630   67.0000 C   0  0  0  0  0  0  0  0  0  0  0  0
   -8.3280   17.5100   67.9650 C   0  0  0  0  0  0  0  0  0  0  0  0
   -7.4470   16.5210   68.4310 C   0  0  0  0  0  0  0  0  0  0  0  0
  -11.5550   13.7670   64.3300 O   0  0  0  0  0  0  0  0  0  0  0  0
   -9.1920    9.7910   65.5630 O   0  0  0  0  0  0  0  0  0  0  0  0
  -10.5320    7.4720   69.3600 C   0  0  0  0  0  0  0  0  0  0  0  0
  -10.7480    6.7950   68.1400 C   0  0  0  0  0  0  0  0  0  0  0  0
  -10.4700    5.4310   67.9680 C   0  0  0  0  0  0  0  0  0  0  0  0
  -11.2780    7.4410   67.0910 F   0  0  0  0  0  0  0  0  0  0  0  0
   -9.9780    4.6830   69.0300 C   0  0  0  0  0  0  0  0  0  0  0  0
   -9.7590    5.3160   70.2430 C   0  0  0  0  0  0  0  0  0  0  0  0
   -9.3020    4.6030   71.2820 F   0  0  0  0  0  0  0  0  0  0  0  0
  -10.0210    6.6810   70.4110 C   0  0  0  0  0  0  0  0  0  0  0  0
  -12.8910   13.7380   71.3510 C   0  0  0  0  0  0  0  0  0  0  0  0
  -13.9660   15.1540   70.9830 C   0  0  0  0  0  0  0  0  0  0  0  0
  -12.8740   15.5200   71.4560 C   0  0  0  0  0  0  0  0  0  0  0  0
  -11.7790   15.0640   71.8600 C   0  0  0  0  0  0  0  0  0  0  0  0
   -8.3380   19.1100   68.7790 S   0  0  0  0  0  0  0  0  0  0  0  0
   -8.7260   20.2990   67.4750 C   0  0  0  0  0  0  0  0  0  0  0  0
   -7.7870   20.3160   66.2780 C   0  0  0  0  0  0  0  0  0  0  0  0
   -6.3330   20.5530   66.6580 C   0  0  0  0  0  0  0  0  0  0  0  0
   -5.8140   19.4830   67.6100 C   0  0  0  0  0  0  0  0  0  0  0  0
   -6.5720   19.4790   68.9260 C   0  0  0  0  0  0  0  0  0  0  0  0
  1 34  1  0  0  0  0
  1  2  2  0  0  0  0
  1  7  1  0  0  0  0
  2  3  1  0  0  0  0
  3  5  2  0  0  0  0
  3  4  1  0  0  0  0
  5  6  1  0  0  0  0
  5 15  1  0  0  0  0
  6  7  2  0  0  0  0
  6 12  1  0  0  0  0
  7  8  1  0  0  0  0
  8 10  1  0  0  0  0
  8  9  2  0  0  0  0
 10 11  1  0  0  0  0
 10 21  1  0  0  0  0
 10 33  1  0  0  0  0
 11 12  1  0  0  0  0
 11 18  1  0  0  0  0
 12 13  2  0  0  0  0
 13 14  1  0  0  0  0
 13 16  1  0  0  0  0
 14 15  2  0  0  0  0
 15 42  1  0  0  0  0
 16 17  1  0  0  0  0
 17 18  1  0  0  0  0
 17 27  1  0  0  0  0
 17 32  1  0  0  0  0
 18 19  1  0  0  0  0
 19 20  2  0  0  0  0
 19 25  1  0  0  0  0
 20 21  1  0  0  0  0
 20 22  1  0  0  0  0
 22 23  2  0  0  0  0
 23 24  1  0  0  0  0
 24 25  2  0  0  0  0
 24 31  1  0  0  0  0
 25 26  1  0  0  0  0
 26 27  1  0  0  0  0
 26 29  2  0  0  0  0
 27 28  2  0  0  0  0
 29 30  1  0  0  0  0
 30 31  2  0  0  0  0
 30 46  1  0  0  0  0
 34 35  1  0  0  0  0
 34 41  2  0  0  0  0
 35 36  2  0  0  0  0
 35 37  1  0  0  0  0
 36 38  1  0  0  0  0
 38 39  2  0  0  0  0
 39 40  1  0  0  0  0
 39 41  1  0  0  0  0
 42 43  1  0  0  0  0
 42 45  1  0  0  0  0
 43 44  2  0  0  0  0
 44 45  2  0  0  0  0
 46 47  1  0  0  0  0
 46 51  1  0  0  0  0
 47 48  1  0  0  0  0
 48 49  1  0  0  0  0
 49 50  1  0  0  0  0
 50 51  1  0  0  0  0
M  CHG  1  46   1
M  END