
 OpenBabel11232003313D

 54 62  0  0  1  0  0  0  0  0999 V2000
   -9.7460   15.3410   67.4790 C   0  0  0  0  0  0  0  0  0  0  0  0
   -9.7970   16.5660   68.0730 C   0  0  0  0  0  0  0  0  0  0  0  0
  -10.3430   16.7100   69.3590 O   0  0  0  0  0  0  0  0  0  0  0  0
  -11.1550   15.7210   69.8830 C   0  0  0  0  0  0  0  0  0  0  0  0
  -11.1260   14.4790   69.3900 C   0  0  0  0  0  0  0  0  0  0  0  0
  -10.2620   14.1310   68.2300 C   0  0  0  0  0  0  0  0  0  0  0  0
  -12.0490   13.4290   69.9210 C   0  0  0  0  0  0  0  0  0  0  0  0
  -11.3500   12.2130   70.1310 O   0  0  0  0  0  0  0  0  0  0  0  0
  -12.1840   11.1650   70.3970 C   0  0  0  0  0  0  0  0  0  0  0  0
  -11.9000   10.0100   70.1440 O   0  0  0  0  0  0  0  0  0  0  0  0
  -13.3690   11.5480   70.9680 O   0  0  0  0  0  0  0  0  0  0  0  0
  -13.2030   12.5930   71.9020 C   0  0  0  0  0  0  0  0  0  0  0  0
  -12.6740   13.8180   71.2320 C   0  0  0  0  0  0  0  0  0  0  0  0
  -12.6830   15.1020   71.6760 C   0  0  0  0  0  0  0  0  0  0  0  0
  -11.9930   16.0610   70.9340 N   0  0  0  0  0  0  0  0  0  0  0  0
  -14.4670   12.9730   72.4510 O   0  0  0  0  0  0  0  0  0  0  0  0
   -9.2930   17.8720   67.5160 C   0  0  0  0  0  0  0  0  0  0  0  0
  -10.0900   18.5940   66.6290 C   0  0  0  0  0  0  0  0  0  0  0  0
   -9.6660   19.7390   66.0850 N   0  0  0  0  0  0  0  0  0  0  0  0
  -10.4710   20.3920   65.2240 F   0  0  0  0  0  0  0  0  0  0  0  0
   -8.4800   20.2560   66.3400 N   0  0  0  0  0  0  0  0  0  0  0  0
   -7.6450   19.6300   67.1690 C   0  0  0  0  0  0  0  0  0  0  0  0
   -7.9930   18.4110   67.7880 C   0  0  0  0  0  0  0  0  0  0  0  0
   -6.3920   20.2050   67.4350 C   0  0  0  0  0  0  0  0  0  0  0  0
   -7.0140   17.8250   68.6370 C   0  0  0  0  0  0  0  0  0  0  0  0
   -5.7570   18.3980   68.8470 C   0  0  0  0  0  0  0  0  0  0  0  0
   -4.7770   17.7180   69.7030 C   0  0  0  0  0  0  0  0  0  0  0  0
   -5.4470   19.6200   68.2830 C   0  0  0  0  0  0  0  0  0  0  0  0
   -4.9820   16.5980   70.1610 O   0  0  0  0  0  0  0  0  0  0  0  0
   -3.4830   18.4690   69.9180 C   0  0  0  0  0  0  0  0  0  0  0  0
   -2.4540   17.8360   70.0980 O   0  0  0  0  0  0  0  0  0  0  0  0
   -3.6270   19.9730   69.8070 C   0  0  0  0  0  0  0  0  0  0  0  0
   -4.3090   20.3210   68.5780 O   0  0  0  0  0  0  0  0  0  0  0  0
   -6.1020   21.3910   66.8760 F   0  0  0  0  0  0  0  0  0  0  0  0
   -4.2540   20.5870   71.0420 C   0  0  0  0  0  0  0  0  0  0  0  0
   -5.6040   21.0620   70.9030 O   0  0  0  0  0  0  0  0  0  0  0  0
   -3.9740   19.9140   72.2790 O   0  0  0  0  0  0  0  0  0  0  0  0
   -3.4880   21.1580   72.1580 C   0  0  0  0  0  0  0  0  0  0  0  0
   -2.3790   21.6170   72.2270 O   0  0  0  0  0  0  0  0  0  0  0  0
   -9.1800   15.1370   66.2230 O   0  0  0  0  0  0  0  0  0  0  0  0
   -9.8660   14.3360   65.2060 C   0  0  0  0  0  0  0  0  0  0  0  0
   -9.9180   12.9450   65.5120 O   0  0  0  0  0  0  0  0  0  0  0  0
  -10.9170   12.2080   64.8840 C   0  0  0  0  0  0  0  0  0  0  0  0
  -10.7020   10.9630   64.4480 C   0  0  0  0  0  0  0  0  0  0  0  0
  -12.3000   12.7470   64.7550 C   0  0  0  0  0  0  0  0  0  0  0  0
   -9.4800   10.3530   64.5280 O   0  0  0  0  0  0  0  0  0  0  0  0
  -12.3690   14.1990   65.1430 C   0  0  0  0  0  0  0  0  0  0  0  0
  -13.2890   12.1260   64.4180 O   0  0  0  0  0  0  0  0  0  0  0  0
  -11.1680   15.0380   64.8350 C   0  0  0  0  0  0  0  0  0  0  0  0
  -13.2370   14.6290   65.8870 O   0  0  0  0  0  0  0  0  0  0  0  0
  -11.2690   16.1800   64.4150 O   0  0  0  0  0  0  0  0  0  0  0  0
  -13.3350   15.5360   72.9200 C   0  0  0  0  0  0  0  0  0  0  0  0
  -12.5530   16.4080   73.8420 N   0  0  0  0  0  0  0  0  0  0  0  0
  -12.6340   15.3710   74.2150 N   0  0  0  0  0  0  0  0  0  0  0  0
  1 40  1  0  0  0  0
  1  2  2  0  0  0  0
  1  6  1  0  0  0  0
  2  3  1  0  0  0  0
  2 17  1  0  0  0  0
  3  4  1  0  0  0  0
  4  5  2  0  0  0  0
  4 15  1  0  0  0  0
  5  6  1  0  0  0  0
  5  7  1  0  0  0  0
  7  8  1  0  0  0  0
  7 13  1  0  0  0  0
  8  9  1  0  0  0  0
  9 10  2  0  0  0  0
  9 11  1  0  0  0  0
 11 12  1  0  0  0  0
 12 13  1  0  0  0  0
 12 16  1  0  0  0  0
 13 14  2  0  0  0  0
 14 15  1  0  0  0  0
 14 52  1  0  0  0  0
 17 18  2  0  0  0  0
 17 23  1  0  0  0  0
 18 19  1  0  0  0  0
 19 20  1  0  0  0  0
 19 21  2  0  0  0  0
 21 22  1  0  0  0  0
 22 23  2  0  0  0  0
 22 24  1  0  0  0  0
 23 25  1  0  0  0  0
 24 28  2  0  0  0  0
 24 34  1  0  0  0  0
 25 26  2  0  0  0  0
 26 27  1  0  0  0  0
 26 28  1  0  0  0  0
 27 29  2  0  0  0  0
 27 30  1  0  0  0  0
 28 33  1  0  0  0  0
 30 31  2  0  0  0  0
 30 32  1  0  0  0  0
 32 33  1  0  0  0  0
 32 35  1  0  0  0  0
 35 36  1  0  0  0  0
 35 37  1  0  0  0  0
 35 38  1  0  0  0  0
 37 38  1  0  0  0  0
 38 39  2  0  0  0  0
 40 41  1  0  0  0  0
 41 42  1  0  0  0  0
 41 49  1  0  0  0  0
 42 43  1  0  0  0  0
 43 44  2  0  0  0  0
 43 45  1  0  0  0  0
 44 46  1  0  0  0  0
 45 47  1  0  0  0  0
 45 48  2  0  0  0  0
 47 49  1  0  0  0  0
 47 50  2  0  0  0  0
 49 51  2  0  0  0  0
 52 53  1  0  0  0  0
 52 54  1  0  0  0  0
 53 54  3  0  0  0  0
M  CHG  3  53   1  54   1  19   1
M  END