
 OpenBabel11252023553D

 54 62  0  0  1  0  0  0  0  0999 V2000
  -11.0390   15.6390   66.8500 C   0  0  0  0  0  0  0  0  0  0  0  0
  -10.6880   16.7370   67.5560 C   0  0  0  0  0  0  0  0  0  0  0  0
  -11.0770   16.9330   68.8960 O   0  0  0  0  0  0  0  0  0  0  0  0
  -11.7410   15.9090   69.5900 C   0  0  0  0  0  0  0  0  0  0  0  0
  -11.9950   14.7320   68.9910 C   0  0  0  0  0  0  0  0  0  0  0  0
  -11.7400   14.4980   67.5370 C   0  0  0  0  0  0  0  0  0  0  0  0
  -12.5920   13.5610   69.7220 C   0  0  0  0  0  0  0  0  0  0  0  0
  -11.6340   12.5210   69.7140 O   0  0  0  0  0  0  0  0  0  0  0  0
  -11.9520   11.4260   70.4390 C   0  0  0  0  0  0  0  0  0  0  0  0
  -11.3270   10.3340   70.2220 N   0  0  0  0  0  0  0  0  0  0  0  0
  -12.9110   11.5160   71.3850 O   0  0  0  0  0  0  0  0  0  0  0  0
  -13.3490   12.7070   71.8370 C   0  0  0  0  0  0  0  0  0  0  0  0
  -14.1190   12.8360   72.7760 O   0  0  0  0  0  0  0  0  0  0  0  0
  -12.8540   13.8850   71.1290 C   0  0  0  0  0  0  0  0  0  0  0  0
  -12.6640   15.1040   71.6780 C   0  0  0  0  0  0  0  0  0  0  0  0
  -12.1130   16.1280   70.9070 O   0  0  0  0  0  0  0  0  0  0  0  0
   -9.8810   17.8570   66.9940 C   0  0  0  0  0  0  0  0  0  0  0  0
  -10.5000   18.7340   66.1090 C   0  0  0  0  0  0  0  0  0  0  0  0
   -9.8220   19.8720   65.7680 C   0  0  0  0  0  0  0  0  0  0  0  0
  -10.3970   20.7380   64.9290 F   0  0  0  0  0  0  0  0  0  0  0  0
   -8.6300   20.1940   66.2700 N   0  0  0  0  0  0  0  0  0  0  0  0
   -8.0230   19.3190   67.0870 C   0  0  0  0  0  0  0  0  0  0  0  0
   -8.5970   18.1020   67.4310 N   0  0  0  0  0  0  0  0  0  0  0  0
   -6.7620   19.6380   67.6230 C   0  0  0  0  0  0  0  0  0  0  0  0
   -7.8710   17.2070   68.1590 C   0  0  0  0  0  0  0  0  0  0  0  0
   -6.5970   17.5110   68.6320 C   0  0  0  0  0  0  0  0  0  0  0  0
   -5.8570   16.5280   69.4110 C   0  0  0  0  0  0  0  0  0  0  0  0
   -6.0410   18.7490   68.4100 C   0  0  0  0  0  0  0  0  0  0  0  0
   -6.3930   15.4840   69.7370 O   0  0  0  0  0  0  0  0  0  0  0  0
   -4.4410   16.9040   69.7710 C   0  0  0  0  0  0  0  0  0  0  0  0
   -3.5630   16.0610   69.7680 O   0  0  0  0  0  0  0  0  0  0  0  0
   -4.2710   18.3860   70.0230 C   0  0  0  0  0  0  0  0  0  0  0  0
   -4.8560   19.1680   68.9500 O   0  0  0  0  0  0  0  0  0  0  0  0
   -6.2390   20.8510   67.3880 F   0  0  0  0  0  0  0  0  0  0  0  0
   -4.7950   18.7760   71.3870 C   0  0  0  0  0  0  0  0  0  0  0  0
   -5.3720   17.7290   72.1810 O   0  0  0  0  0  0  0  0  0  0  0  0
   -4.0200   19.7380   72.1130 O   0  0  0  0  0  0  0  0  0  0  0  0
   -5.2370   20.1370   71.7030 C   0  0  0  0  0  0  0  0  0  0  0  0
   -5.6040   21.0420   70.9910 O   0  0  0  0  0  0  0  0  0  0  0  0
  -10.7030   15.4940   65.5060 O   0  0  0  0  0  0  0  0  0  0  0  0
  -10.3320   14.1660   65.0160 C   0  0  0  0  0  0  0  0  0  0  0  0
   -9.9280   13.3160   66.0720 O   0  0  0  0  0  0  0  0  0  0  0  0
   -9.6830   11.9950   65.7550 C   0  0  0  0  0  0  0  0  0  0  0  0
   -8.8760   11.2690   66.5390 C   0  0  0  0  0  0  0  0  0  0  0  0
  -10.3370   11.3110   64.5930 C   0  0  0  0  0  0  0  0  0  0  0  0
   -8.2760   11.7890   67.6590 O   0  0  0  0  0  0  0  0  0  0  0  0
  -11.1360   12.1610   63.6320 C   0  0  0  0  0  0  0  0  0  0  0  0
  -10.2060   10.0980   64.4300 O   0  0  0  0  0  0  0  0  0  0  0  0
  -11.4340   13.5460   64.1500 C   0  0  0  0  0  0  0  0  0  0  0  0
  -12.2940   11.5320   63.2720 F   0  0  0  0  0  0  0  0  0  0  0  0
  -12.4590   14.1760   63.8670 O   0  0  0  0  0  0  0  0  0  0  0  0
  -13.0020   15.4650   73.0790 C   0  0  0  0  0  0  0  0  0  0  0  0
  -12.0980   15.1210   74.1470 O   0  0  0  0  0  0  0  0  0  0  0  0
  -12.2690   16.4960   73.7570 O   0  0  0  0  0  0  0  0  0  0  0  0
  1 40  1  0  0  0  0
  1  2  2  0  0  0  0
  1  6  1  0  0  0  0
  2  3  1  0  0  0  0
  2 17  1  0  0  0  0
  3  4  1  0  0  0  0
  4  5  2  0  0  0  0
  4 16  1  0  0  0  0
  5  6  1  0  0  0  0
  5  7  1  0  0  0  0
  7  8  1  0  0  0  0
  7 14  1  0  0  0  0
  8  9  1  0  0  0  0
  9 10  2  0  0  0  0
  9 11  1  0  0  0  0
 11 12  1  0  0  0  0
 12 13  2  0  0  0  0
 12 14  1  0  0  0  0
 14 15  2  0  0  0  0
 15 16  1  0  0  0  0
 15 52  1  0  0  0  0
 17 18  2  0  0  0  0
 17 23  1  0  0  0  0
 18 19  1  0  0  0  0
 19 20  1  0  0  0  0
 19 21  2  0  0  0  0
 21 22  1  0  0  0  0
 22 23  2  0  0  0  0
 22 24  1  0  0  0  0
 23 25  1  0  0  0  0
 24 28  2  0  0  0  0
 24 34  1  0  0  0  0
 25 26  2  0  0  0  0
 26 27  1  0  0  0  0
 26 28  1  0  0  0  0
 27 29  2  0  0  0  0
 27 30  1  0  0  0  0
 28 33  1  0  0  0  0
 30 31  2  0  0  0  0
 30 32  1  0  0  0  0
 32 33  1  0  0  0  0
 32 35  1  0  0  0  0
 35 36  1  0  0  0  0
 35 37  1  0  0  0  0
 35 38  1  0  0  0  0
 37 38  1  0  0  0  0
 38 39  2  0  0  0  0
 40 41  1  0  0  0  0
 41 42  1  0  0  0  0
 41 49  1  0  0  0  0
 42 43  1  0  0  0  0
 43 44  2  0  0  0  0
 43 45  1  0  0  0  0
 44 46  1  0  0  0  0
 45 47  1  0  0  0  0
 45 48  2  0  0  0  0
 47 49  1  0  0  0  0
 47 50  1  0  0  0  0
 49 51  2  0  0  0  0
 52 53  1  0  0  0  0
 52 54  1  0  0  0  0
 53 54  1  0  0  0  0
M  CHG  2  16   1  23   1
M  END