
 OpenBabel11252023423D

 54 62  0  0  1  0  0  0  0  0999 V2000
  -11.2300   15.9630   67.2750 C   0  0  0  0  0  0  0  0  0  0  0  0
  -10.6780   16.9770   67.9700 C   0  0  0  0  0  0  0  0  0  0  0  0
  -10.8690   17.1470   69.3460 O   0  0  0  0  0  0  0  0  0  0  0  0
  -11.5580   16.1540   70.0790 C   0  0  0  0  0  0  0  0  0  0  0  0
  -12.0790   15.0760   69.4570 C   0  0  0  0  0  0  0  0  0  0  0  0
  -12.0510   14.9020   67.9610 C   0  0  0  0  0  0  0  0  0  0  0  0
  -12.7260   13.9430   70.2250 C   0  0  0  0  0  0  0  0  0  0  0  0
  -11.9160   12.7930   70.0000 O   0  0  0  0  0  0  0  0  0  0  0  0
  -12.1440   11.6960   70.7530 C   0  0  0  0  0  0  0  0  0  0  0  0
  -11.5880   10.5880   70.4520 N   0  0  0  0  0  0  0  0  0  0  0  0
  -12.9350   11.8000   71.8320 O   0  0  0  0  0  0  0  0  0  0  0  0
  -13.3390   13.0400   72.3960 C   0  0  0  0  0  0  0  0  0  0  0  0
  -12.7340   14.1980   71.6840 C   0  0  0  0  0  0  0  0  0  0  0  0
  -12.2430   15.3230   72.2420 C   0  0  0  0  0  0  0  0  0  0  0  0
  -11.6650   16.3050   71.4500 O   0  0  0  0  0  0  0  0  0  0  0  0
  -14.7330   13.2050   72.2440 O   0  0  0  0  0  0  0  0  0  0  0  0
   -9.7600   17.9350   67.2840 C   0  0  0  0  0  0  0  0  0  0  0  0
  -10.3050   18.8250   66.3520 C   0  0  0  0  0  0  0  0  0  0  0  0
   -9.5330   19.7600   65.7920 N   0  0  0  0  0  0  0  0  0  0  0  0
  -10.0650   20.5960   64.8780 F   0  0  0  0  0  0  0  0  0  0  0  0
   -8.2620   19.8980   66.1080 N   0  0  0  0  0  0  0  0  0  0  0  0
   -7.7120   19.0790   67.0280 C   0  0  0  0  0  0  0  0  0  0  0  0
   -8.4360   18.0550   67.6280 N   0  0  0  0  0  0  0  0  0  0  0  0
   -6.3500   19.2610   67.3960 C   0  0  0  0  0  0  0  0  0  0  0  0
   -7.8200   17.2230   68.5120 C   0  0  0  0  0  0  0  0  0  0  0  0
   -6.4830   17.3760   68.8550 C   0  0  0  0  0  0  0  0  0  0  0  0
   -5.8820   16.4400   69.7880 C   0  0  0  0  0  0  0  0  0  0  0  0
   -5.7410   18.3970   68.3190 C   0  0  0  0  0  0  0  0  0  0  0  0
   -6.5330   15.4630   70.1180 O   0  0  0  0  0  0  0  0  0  0  0  0
   -4.4850   16.7340   70.2770 C   0  0  0  0  0  0  0  0  0  0  0  0
   -3.8870   15.8910   70.9230 O   0  0  0  0  0  0  0  0  0  0  0  0
   -3.9810   18.1280   69.9520 C   0  0  0  0  0  0  0  0  0  0  0  0
   -4.4450   18.6470   68.6800 O   0  0  0  0  0  0  0  0  0  0  0  0
   -5.5290   20.1790   66.7020 N   0  0  0  0  0  0  0  0  0  0  0  0
   -4.2320   19.0770   71.1040 C   0  0  0  0  0  0  0  0  0  0  0  0
   -5.2720   18.7110   72.0220 O   0  0  0  0  0  0  0  0  0  0  0  0
   -3.0880   19.7210   71.6670 O   0  0  0  0  0  0  0  0  0  0  0  0
   -3.9610   20.5150   71.0150 C   0  0  0  0  0  0  0  0  0  0  0  0
   -3.8270   21.2240   70.0430 O   0  0  0  0  0  0  0  0  0  0  0  0
  -10.9470   15.8280   65.9270 O   0  0  0  0  0  0  0  0  0  0  0  0
  -10.6460   14.5020   65.4150 C   0  0  0  0  0  0  0  0  0  0  0  0
  -10.6010   13.5670   66.4840 O   0  0  0  0  0  0  0  0  0  0  0  0
  -10.2850   12.2860   66.0480 C   0  0  0  0  0  0  0  0  0  0  0  0
   -9.4950   11.4950   66.7820 C   0  0  0  0  0  0  0  0  0  0  0  0
  -10.8330   11.7580   64.7610 C   0  0  0  0  0  0  0  0  0  0  0  0
   -8.9360   11.9060   67.9670 O   0  0  0  0  0  0  0  0  0  0  0  0
  -11.8290   12.6960   64.1040 C   0  0  0  0  0  0  0  0  0  0  0  0
  -10.4920   10.7070   64.2510 O   0  0  0  0  0  0  0  0  0  0  0  0
  -11.7960   14.1600   64.4860 C   0  0  0  0  0  0  0  0  0  0  0  0
  -12.6770   12.2870   63.3330 O   0  0  0  0  0  0  0  0  0  0  0  0
  -12.6470   14.9650   64.1310 O   0  0  0  0  0  0  0  0  0  0  0  0
  -12.2380   15.5840   73.7020 C   0  0  0  0  0  0  0  0  0  0  0  0
  -12.1130   16.9190   74.2050 O   0  0  0  0  0  0  0  0  0  0  0  0
  -13.3690   16.2230   74.3220 O   0  0  0  0  0  0  0  0  0  0  0  0
  1 40  1  0  0  0  0
  1  2  2  0  0  0  0
  1  6  1  0  0  0  0
  2  3  1  0  0  0  0
  2 17  1  0  0  0  0
  3  4  1  0  0  0  0
  4  5  2  0  0  0  0
  4 15  1  0  0  0  0
  5  6  1  0  0  0  0
  5  7  1  0  0  0  0
  7  8  1  0  0  0  0
  7 13  1  0  0  0  0
  8  9  1  0  0  0  0
  9 10  2  0  0  0  0
  9 11  1  0  0  0  0
 11 12  1  0  0  0  0
 12 13  1  0  0  0  0
 12 16  1  0  0  0  0
 13 14  2  0  0  0  0
 14 15  1  0  0  0  0
 14 52  1  0  0  0  0
 17 18  2  0  0  0  0
 17 23  1  0  0  0  0
 18 19  1  0  0  0  0
 19 20  1  0  0  0  0
 19 21  2  0  0  0  0
 21 22  1  0  0  0  0
 22 23  2  0  0  0  0
 22 24  1  0  0  0  0
 23 25  1  0  0  0  0
 24 28  2  0  0  0  0
 24 34  1  0  0  0  0
 25 26  2  0  0  0  0
 26 27  1  0  0  0  0
 26 28  1  0  0  0  0
 27 29  2  0  0  0  0
 27 30  1  0  0  0  0
 28 33  1  0  0  0  0
 30 31  2  0  0  0  0
 30 32  1  0  0  0  0
 32 33  1  0  0  0  0
 32 35  1  0  0  0  0
 35 36  1  0  0  0  0
 35 37  1  0  0  0  0
 35 38  1  0  0  0  0
 37 38  1  0  0  0  0
 38 39  2  0  0  0  0
 40 41  1  0  0  0  0
 41 42  1  0  0  0  0
 41 49  1  0  0  0  0
 42 43  1  0  0  0  0
 43 44  2  0  0  0  0
 43 45  1  0  0  0  0
 44 46  1  0  0  0  0
 45 47  1  0  0  0  0
 45 48  2  0  0  0  0
 47 49  1  0  0  0  0
 47 50  2  0  0  0  0
 49 51  2  0  0  0  0
 52 53  1  0  0  0  0
 52 54  1  0  0  0  0
 53 54  1  0  0  0  0
M  CHG  3  15   1  19   1  23   1
M  END