
 OpenBabel11272002003D

 54 63  0  0  1  0  0  0  0  0999 V2000
  -10.7330   15.2910   67.0660 C   0  0  0  0  0  0  0  0  0  0  0  0
  -10.7070   16.4750   67.7150 C   0  0  0  0  0  0  0  0  0  0  0  0
  -11.2870   16.6430   68.9740 O   0  0  0  0  0  0  0  0  0  0  0  0
  -11.8410   15.5650   69.6290 C   0  0  0  0  0  0  0  0  0  0  0  0
  -11.9370   14.3490   69.0690 C   0  0  0  0  0  0  0  0  0  0  0  0
  -11.4120   14.0880   67.6920 C   0  0  0  0  0  0  0  0  0  0  0  0
  -12.6090   13.2260   69.8200 C   0  0  0  0  0  0  0  0  0  0  0  0
  -11.7310   12.1150   69.8560 O   0  0  0  0  0  0  0  0  0  0  0  0
  -12.1660   11.0150   70.5210 C   0  0  0  0  0  0  0  0  0  0  0  0
  -11.6980    9.9100   70.2770 O   0  0  0  0  0  0  0  0  0  0  0  0
  -13.1430   11.1870   71.4470 O   0  0  0  0  0  0  0  0  0  0  0  0
  -13.4550   12.3980   71.9480 C   0  0  0  0  0  0  0  0  0  0  0  0
  -14.1740   12.5180   72.9310 O   0  0  0  0  0  0  0  0  0  0  0  0
  -12.9440   13.5540   71.2240 C   0  0  0  0  0  0  0  0  0  0  0  0
  -12.7970   14.7930   71.7410 C   0  0  0  0  0  0  0  0  0  0  0  0
  -12.2970   15.7820   70.9040 N   0  0  0  0  0  0  0  0  0  0  0  0
  -10.0130   17.7140   67.2720 C   0  0  0  0  0  0  0  0  0  0  0  0
  -10.8020   18.4860   66.4780 N   0  0  0  0  0  0  0  0  0  0  0  0
  -10.2750   19.6050   65.9560 C   0  0  0  0  0  0  0  0  0  0  0  0
  -11.0660   20.3590   65.1800 F   0  0  0  0  0  0  0  0  0  0  0  0
   -8.9790   20.0130   66.1650 C   0  0  0  0  0  0  0  0  0  0  0  0
   -8.1540   19.2340   66.9770 C   0  0  0  0  0  0  0  0  0  0  0  0
   -8.6600   18.0460   67.5600 C   0  0  0  0  0  0  0  0  0  0  0  0
   -6.8260   19.6250   67.2170 C   0  0  0  0  0  0  0  0  0  0  0  0
   -7.7730   17.2990   68.3740 C   0  0  0  0  0  0  0  0  0  0  0  0
   -6.4860   17.7620   68.6770 C   0  0  0  0  0  0  0  0  0  0  0  0
   -5.9970   18.9100   68.0760 C   0  0  0  0  0  0  0  0  0  0  0  0
   -5.6770   17.0830   69.7030 C   0  0  0  0  0  0  0  0  0  0  0  0
   -4.7210   19.3670   68.2740 O   0  0  0  0  0  0  0  0  0  0  0  0
   -4.1870   19.0610   69.5800 C   0  0  0  0  0  0  0  0  0  0  0  0
   -4.3170   17.6640   70.0280 C   0  0  0  0  0  0  0  0  0  0  0  0
   -2.9850   19.7100   69.9170 O   0  0  0  0  0  0  0  0  0  0  0  0
   -4.1850   20.1240   70.6400 C   0  0  0  0  0  0  0  0  0  0  0  0
   -3.4840   17.0620   70.6840 O   0  0  0  0  0  0  0  0  0  0  0  0
   -4.9820   21.2530   70.0990 O   0  0  0  0  0  0  0  0  0  0  0  0
   -4.0020   21.5220   70.9270 C   0  0  0  0  0  0  0  0  0  0  0  0
   -3.9530   22.1680   71.9500 O   0  0  0  0  0  0  0  0  0  0  0  0
   -6.1260   16.1460   70.3500 O   0  0  0  0  0  0  0  0  0  0  0  0
   -6.3480   20.7370   66.6350 F   0  0  0  0  0  0  0  0  0  0  0  0
  -10.0590   15.1140   65.8620 O   0  0  0  0  0  0  0  0  0  0  0  0
   -9.7620   13.7660   65.4700 C   0  0  0  0  0  0  0  0  0  0  0  0
   -9.6860   12.8990   66.6010 O   0  0  0  0  0  0  0  0  0  0  0  0
   -9.5330   11.5490   66.3450 C   0  0  0  0  0  0  0  0  0  0  0  0
   -9.1390   10.7210   67.3140 C   0  0  0  0  0  0  0  0  0  0  0  0
   -9.8400   10.9460   65.0210 C   0  0  0  0  0  0  0  0  0  0  0  0
   -8.8610   11.1690   68.5530 F   0  0  0  0  0  0  0  0  0  0  0  0
  -10.5800   11.8710   64.0770 C   0  0  0  0  0  0  0  0  0  0  0  0
   -9.4940    9.8260   64.6860 O   0  0  0  0  0  0  0  0  0  0  0  0
  -10.8520   13.2770   64.5320 C   0  0  0  0  0  0  0  0  0  0  0  0
  -10.8940   11.5160   62.9540 O   0  0  0  0  0  0  0  0  0  0  0  0
  -11.8510   13.8820   64.1760 O   0  0  0  0  0  0  0  0  0  0  0  0
  -13.1070   15.2090   73.1330 C   0  0  0  0  0  0  0  0  0  0  0  0
  -12.1850   14.9700   74.2140 O   0  0  0  0  0  0  0  0  0  0  0  0
  -12.4310   16.3120   73.7550 O   0  0  0  0  0  0  0  0  0  0  0  0
  1 40  1  0  0  0  0
  1  2  2  0  0  0  0
  1  6  1  0  0  0  0
  2  3  1  0  0  0  0
  2 17  1  0  0  0  0
  3  4  1  0  0  0  0
  4  5  2  0  0  0  0
  4 16  1  0  0  0  0
  5  6  1  0  0  0  0
  5  7  1  0  0  0  0
  7  8  1  0  0  0  0
  7 14  1  0  0  0  0
  8  9  1  0  0  0  0
  9 10  2  0  0  0  0
  9 11  1  0  0  0  0
 11 12  1  0  0  0  0
 12 13  2  0  0  0  0
 12 14  1  0  0  0  0
 14 15  2  0  0  0  0
 15 16  1  0  0  0  0
 15 52  1  0  0  0  0
 17 18  2  0  0  0  0
 17 23  1  0  0  0  0
 18 19  1  0  0  0  0
 19 20  1  0  0  0  0
 19 21  2  0  0  0  0
 21 22  1  0  0  0  0
 22 23  2  0  0  0  0
 22 24  1  0  0  0  0
 23 25  1  0  0  0  0
 24 27  2  0  0  0  0
 24 39  1  0  0  0  0
 25 26  2  0  0  0  0
 26 27  1  0  0  0  0
 26 28  1  0  0  0  0
 27 29  1  0  0  0  0
 28 31  1  0  0  0  0
 28 38  2  0  0  0  0
 29 30  1  0  0  0  0
 30 31  1  0  0  0  0
 30 32  1  0  0  0  0
 30 33  1  0  0  0  0
 31 34  2  0  0  0  0
 32 33  1  0  0  0  0
 33 35  1  0  0  0  0
 33 36  1  0  0  0  0
 35 36  1  0  0  0  0
 36 37  2  0  0  0  0
 40 41  1  0  0  0  0
 41 42  1  0  0  0  0
 41 49  1  0  0  0  0
 42 43  1  0  0  0  0
 43 44  2  0  0  0  0
 43 45  1  0  0  0  0
 44 46  1  0  0  0  0
 45 47  1  0  0  0  0
 45 48  2  0  0  0  0
 47 49  1  0  0  0  0
 47 50  2  0  0  0  0
 49 51  2  0  0  0  0
 52 53  1  0  0  0  0
 52 54  1  0  0  0  0
 53 54  1  0  0  0  0
M  END
