
 OpenBabel11222002063D

 54 62  0  0  1  0  0  0  0  0999 V2000
  -10.1350   15.4460   67.2680 C   0  0  0  0  0  0  0  0  0  0  0  0
  -10.3130   16.6530   67.8650 C   0  0  0  0  0  0  0  0  0  0  0  0
  -11.0340   16.7930   69.0590 O   0  0  0  0  0  0  0  0  0  0  0  0
  -11.5560   15.6760   69.6950 C   0  0  0  0  0  0  0  0  0  0  0  0
  -11.3690   14.4520   69.1960 C   0  0  0  0  0  0  0  0  0  0  0  0
  -10.6740   14.2000   67.9150 C   0  0  0  0  0  0  0  0  0  0  0  0
  -11.9020   13.2880   69.9370 C   0  0  0  0  0  0  0  0  0  0  0  0
  -11.6670   12.0970   69.4890 N   0  0  0  0  0  0  0  0  0  0  0  0
  -12.1740   11.0080   70.1540 C   0  0  0  0  0  0  0  0  0  0  0  0
  -11.9560    9.8980   69.6830 O   0  0  0  0  0  0  0  0  0  0  0  0
  -12.9110   11.1070   71.3130 N   0  0  0  0  0  0  0  0  0  0  0  0
  -13.1400   12.2850   71.7590 C   0  0  0  0  0  0  0  0  0  0  0  0
  -12.6850   13.5400   71.1700 C   0  0  0  0  0  0  0  0  0  0  0  0
  -12.8580   14.8210   71.5770 C   0  0  0  0  0  0  0  0  0  0  0  0
  -12.2630   15.8580   70.8550 N   0  0  0  0  0  0  0  0  0  0  0  0
  -13.8450   12.3730   72.8880 O   0  0  0  0  0  0  0  0  0  0  0  0
   -9.7590   17.9360   67.3340 C   0  0  0  0  0  0  0  0  0  0  0  0
  -10.5540   18.7080   66.4710 C   0  0  0  0  0  0  0  0  0  0  0  0
  -10.0680   19.8950   65.9850 C   0  0  0  0  0  0  0  0  0  0  0  0
  -10.8460   20.6200   65.1710 F   0  0  0  0  0  0  0  0  0  0  0  0
   -8.8430   20.3580   66.2610 N   0  0  0  0  0  0  0  0  0  0  0  0
   -8.0600   19.6130   67.0680 C   0  0  0  0  0  0  0  0  0  0  0  0
   -8.4530   18.3760   67.6330 C   0  0  0  0  0  0  0  0  0  0  0  0
   -6.7600   20.0730   67.3430 C   0  0  0  0  0  0  0  0  0  0  0  0
   -7.6050   17.6640   68.4160 N   0  0  0  0  0  0  0  0  0  0  0  0
   -6.3700   18.1530   68.6750 C   0  0  0  0  0  0  0  0  0  0  0  0
   -5.4700   17.3010   69.4640 C   0  0  0  0  0  0  0  0  0  0  0  0
   -5.9070   19.3550   68.1890 C   0  0  0  0  0  0  0  0  0  0  0  0
   -5.6890   16.1150   69.6670 O   0  0  0  0  0  0  0  0  0  0  0  0
   -4.2100   17.9470   69.9880 C   0  0  0  0  0  0  0  0  0  0  0  0
   -3.4670   17.3360   70.7460 O   0  0  0  0  0  0  0  0  0  0  0  0
   -3.9630   19.3760   69.5480 C   0  0  0  0  0  0  0  0  0  0  0  0
   -4.6600   19.8650   68.4060 O   0  0  0  0  0  0  0  0  0  0  0  0
   -6.3810   21.3820   66.9270 N   0  0  0  0  0  0  0  0  0  0  0  0
   -4.1510   20.3250   70.6910 C   0  0  0  0  0  0  0  0  0  0  0  0
   -5.1550   21.3510   70.5100 O   0  0  0  0  0  0  0  0  0  0  0  0
   -4.0840   19.7250   71.9850 O   0  0  0  0  0  0  0  0  0  0  0  0
   -3.1190   20.6150   71.6800 C   0  0  0  0  0  0  0  0  0  0  0  0
   -2.8220   21.6470   72.2330 O   0  0  0  0  0  0  0  0  0  0  0  0
   -9.4700   15.3250   66.0510 O   0  0  0  0  0  0  0  0  0  0  0  0
   -9.8770   14.3170   65.1170 C   0  0  0  0  0  0  0  0  0  0  0  0
  -10.0040   13.0530   65.7560 O   0  0  0  0  0  0  0  0  0  0  0  0
  -10.2660   12.0260   64.8790 C   0  0  0  0  0  0  0  0  0  0  0  0
   -9.5510   10.8950   64.8800 C   0  0  0  0  0  0  0  0  0  0  0  0
  -11.3930   12.1590   63.9240 C   0  0  0  0  0  0  0  0  0  0  0  0
   -8.4800   10.6900   65.7080 O   0  0  0  0  0  0  0  0  0  0  0  0
  -11.8950   13.5820   63.7680 C   0  0  0  0  0  0  0  0  0  0  0  0
  -11.8600   11.2310   63.2870 O   0  0  0  0  0  0  0  0  0  0  0  0
  -11.2170   14.7140   64.5110 C   0  0  0  0  0  0  0  0  0  0  0  0
  -12.8140   13.8210   62.9990 O   0  0  0  0  0  0  0  0  0  0  0  0
  -11.7100   15.8330   64.5370 O   0  0  0  0  0  0  0  0  0  0  0  0
  -13.6440   15.2570   72.7630 C   0  0  0  0  0  0  0  0  0  0  0  0
  -13.0840   15.2270   74.0920 O   0  0  0  0  0  0  0  0  0  0  0  0
  -13.3500   16.4860   73.4470 O   0  0  0  0  0  0  0  0  0  0  0  0
  1 40  1  0  0  0  0
  1  2  2  0  0  0  0
  1  6  1  0  0  0  0
  2  3  1  0  0  0  0
  2 17  1  0  0  0  0
  3  4  1  0  0  0  0
  4  5  2  0  0  0  0
  4 15  1  0  0  0  0
  5  6  1  0  0  0  0
  5  7  1  0  0  0  0
  7  8  2  0  0  0  0
  7 13  1  0  0  0  0
  8  9  1  0  0  0  0
  9 10  2  0  0  0  0
  9 11  1  0  0  0  0
 11 12  2  0  0  0  0
 12 13  1  0  0  0  0
 12 16  1  0  0  0  0
 13 14  2  0  0  0  0
 14 15  1  0  0  0  0
 14 52  1  0  0  0  0
 17 18  2  0  0  0  0
 17 23  1  0  0  0  0
 18 19  1  0  0  0  0
 19 20  1  0  0  0  0
 19 21  2  0  0  0  0
 21 22  1  0  0  0  0
 22 23  2  0  0  0  0
 22 24  1  0  0  0  0
 23 25  1  0  0  0  0
 24 28  2  0  0  0  0
 24 34  1  0  0  0  0
 25 26  2  0  0  0  0
 26 27  1  0  0  0  0
 26 28  1  0  0  0  0
 27 29  2  0  0  0  0
 27 30  1  0  0  0  0
 28 33  1  0  0  0  0
 30 31  2  0  0  0  0
 30 32  1  0  0  0  0
 32 33  1  0  0  0  0
 32 35  1  0  0  0  0
 35 36  1  0  0  0  0
 35 37  1  0  0  0  0
 35 38  1  0  0  0  0
 37 38  1  0  0  0  0
 38 39  2  0  0  0  0
 40 41  1  0  0  0  0
 41 42  1  0  0  0  0
 41 49  1  0  0  0  0
 42 43  1  0  0  0  0
 43 44  2  0  0  0  0
 43 45  1  0  0  0  0
 44 46  1  0  0  0  0
 45 47  1  0  0  0  0
 45 48  2  0  0  0  0
 47 49  1  0  0  0  0
 47 50  2  0  0  0  0
 49 51  2  0  0  0  0
 52 53  1  0  0  0  0
 52 54  1  0  0  0  0
 53 54  1  0  0  0  0
M  END
