
 OpenBabel11212022023D

 54 62  0  0  1  0  0  0  0  0999 V2000
   -7.9970   11.7170   67.8960 O   0  0  0  0  0  0  0  0  0  0  0  0
   -8.7480   12.0000   67.0550 C   0  0  0  0  0  0  0  0  0  0  0  0
   -9.5990   12.4540   66.1680 C   0  0  0  0  0  0  0  0  0  0  0  0
   -9.9370   13.7790   66.3430 O   0  0  0  0  0  0  0  0  0  0  0  0
  -10.7550   14.4200   65.3740 C   0  0  0  0  0  0  0  0  0  0  0  0
  -11.9100   13.5250   64.9630 C   0  0  0  0  0  0  0  0  0  0  0  0
  -13.0960   13.7930   65.0660 O   0  0  0  0  0  0  0  0  0  0  0  0
  -11.4050   12.1990   64.4580 C   0  0  0  0  0  0  0  0  0  0  0  0
  -11.7690   11.7840   63.3730 O   0  0  0  0  0  0  0  0  0  0  0  0
  -10.3140   11.5210   65.2600 C   0  0  0  0  0  0  0  0  0  0  0  0
  -10.0800   10.3340   65.1600 O   0  0  0  0  0  0  0  0  0  0  0  0
  -11.3000   15.6470   65.9290 O   0  0  0  0  0  0  0  0  0  0  0  0
  -11.3640   15.8000   67.3120 C   0  0  0  0  0  0  0  0  0  0  0  0
  -10.7520   16.8280   67.9610 C   0  0  0  0  0  0  0  0  0  0  0  0
  -10.8400   16.9480   69.3680 O   0  0  0  0  0  0  0  0  0  0  0  0
  -11.5030   15.9860   70.1430 C   0  0  0  0  0  0  0  0  0  0  0  0
  -12.0440   14.9040   69.5630 C   0  0  0  0  0  0  0  0  0  0  0  0
  -11.5930   16.1720   71.5110 O   0  0  0  0  0  0  0  0  0  0  0  0
  -12.0930   14.7300   68.0840 C   0  0  0  0  0  0  0  0  0  0  0  0
  -12.6970   13.8050   70.3440 C   0  0  0  0  0  0  0  0  0  0  0  0
  -11.8890   12.6540   70.1790 O   0  0  0  0  0  0  0  0  0  0  0  0
  -12.7450   14.1010   71.7880 C   0  0  0  0  0  0  0  0  0  0  0  0
  -12.2070   11.5340   70.8810 C   0  0  0  0  0  0  0  0  0  0  0  0
  -11.7350   10.4510   70.5800 O   0  0  0  0  0  0  0  0  0  0  0  0
  -13.0430   11.7020   71.9330 O   0  0  0  0  0  0  0  0  0  0  0  0
  -13.4200   12.9650   72.4730 C   0  0  0  0  0  0  0  0  0  0  0  0
  -14.8010   13.1630   72.2440 O   0  0  0  0  0  0  0  0  0  0  0  0
  -12.2370   15.2340   72.3210 C   0  0  0  0  0  0  0  0  0  0  0  0
   -9.9410   17.9190   67.2820 C   0  0  0  0  0  0  0  0  0  0  0  0
  -10.5680   18.7740   66.3670 C   0  0  0  0  0  0  0  0  0  0  0  0
   -9.9090   19.7740   65.7700 N   0  0  0  0  0  0  0  0  0  0  0  0
  -10.5620   20.5550   64.8870 F   0  0  0  0  0  0  0  0  0  0  0  0
   -8.6420   20.0350   66.0090 N   0  0  0  0  0  0  0  0  0  0  0  0
   -7.9600   19.2760   66.8640 C   0  0  0  0  0  0  0  0  0  0  0  0
   -8.5510   18.1630   67.5060 C   0  0  0  0  0  0  0  0  0  0  0  0
   -6.6290   19.6170   67.1430 C   0  0  0  0  0  0  0  0  0  0  0  0
   -7.7080   17.4070   68.3560 C   0  0  0  0  0  0  0  0  0  0  0  0
   -6.3940   17.7980   68.6470 C   0  0  0  0  0  0  0  0  0  0  0  0
   -5.6410   17.0610   69.6640 C   0  0  0  0  0  0  0  0  0  0  0  0
   -5.8470   18.9200   68.0630 C   0  0  0  0  0  0  0  0  0  0  0  0
   -6.1280   16.0670   70.1840 O   0  0  0  0  0  0  0  0  0  0  0  0
   -4.2880   17.6140   70.0370 C   0  0  0  0  0  0  0  0  0  0  0  0
   -3.4700   16.8960   70.5880 O   0  0  0  0  0  0  0  0  0  0  0  0
   -4.0990   19.0780   69.6910 C   0  0  0  0  0  0  0  0  0  0  0  0
   -4.6200   19.4230   68.3900 O   0  0  0  0  0  0  0  0  0  0  0  0
   -6.1120   20.7080   66.5550 F   0  0  0  0  0  0  0  0  0  0  0  0
   -4.6080   19.9770   70.7960 C   0  0  0  0  0  0  0  0  0  0  0  0
   -5.5910   20.9550   70.4150 O   0  0  0  0  0  0  0  0  0  0  0  0
   -4.8300   19.3490   72.0680 O   0  0  0  0  0  0  0  0  0  0  0  0
   -3.8670   20.2780   72.0130 C   0  0  0  0  0  0  0  0  0  0  0  0
   -2.6810   20.2470   72.2740 O   0  0  0  0  0  0  0  0  0  0  0  0
  -12.2910   15.5490   73.7670 C   0  0  0  0  0  0  0  0  0  0  0  0
  -12.0600   16.8820   74.2350 O   0  0  0  0  0  0  0  0  0  0  0  0
  -13.3830   16.3150   74.3040 O   0  0  0  0  0  0  0  0  0  0  0  0
  1  2  2  0  0  0  0
  2  3  2  0  0  0  0
  3  4  1  0  0  0  0
  3 10  1  0  0  0  0
  4  5  1  0  0  0  0
  5 12  1  0  0  0  0
  5  6  1  0  0  0  0
  6  7  2  0  0  0  0
  6  8  1  0  0  0  0
  8  9  2  0  0  0  0
  8 10  1  0  0  0  0
 10 11  2  0  0  0  0
 12 13  1  0  0  0  0
 13 14  2  0  0  0  0
 13 19  1  0  0  0  0
 14 15  1  0  0  0  0
 14 29  1  0  0  0  0
 15 16  1  0  0  0  0
 16 17  2  0  0  0  0
 16 18  1  0  0  0  0
 17 19  1  0  0  0  0
 17 20  1  0  0  0  0
 18 28  1  0  0  0  0
 20 21  1  0  0  0  0
 20 22  1  0  0  0  0
 21 23  1  0  0  0  0
 22 26  1  0  0  0  0
 22 28  2  0  0  0  0
 23 24  2  0  0  0  0
 23 25  1  0  0  0  0
 25 26  1  0  0  0  0
 26 27  1  0  0  0  0
 28 52  1  0  0  0  0
 29 30  2  0  0  0  0
 29 35  1  0  0  0  0
 30 31  1  0  0  0  0
 31 32  1  0  0  0  0
 31 33  2  0  0  0  0
 33 34  1  0  0  0  0
 34 35  2  0  0  0  0
 34 36  1  0  0  0  0
 35 37  1  0  0  0  0
 36 40  2  0  0  0  0
 36 46  1  0  0  0  0
 37 38  2  0  0  0  0
 38 39  1  0  0  0  0
 38 40  1  0  0  0  0
 39 41  2  0  0  0  0
 39 42  1  0  0  0  0
 40 45  1  0  0  0  0
 42 43  2  0  0  0  0
 42 44  1  0  0  0  0
 44 45  1  0  0  0  0
 44 47  1  0  0  0  0
 47 48  1  0  0  0  0
 47 49  1  0  0  0  0
 47 50  1  0  0  0  0
 49 50  1  0  0  0  0
 50 51  2  0  0  0  0
 52 53  1  0  0  0  0
 52 54  1  0  0  0  0
 53 54  1  0  0  0  0
M  CHG  2  18   1  31   1
M  END