
 OpenBabel11242000303D

 53 62  0  0  1  0  0  0  0  0999 V2000
  -11.0410   15.5350   67.0950 C   0  0  0  0  0  0  0  0  0  0  0  0
  -10.7070   16.6950   67.7130 C   0  0  0  0  0  0  0  0  0  0  0  0
  -11.0960   16.9440   69.0360 O   0  0  0  0  0  0  0  0  0  0  0  0
  -11.6540   15.9240   69.7950 C   0  0  0  0  0  0  0  0  0  0  0  0
  -12.1120   14.7950   69.2330 C   0  0  0  0  0  0  0  0  0  0  0  0
  -11.9750   14.5470   67.7720 C   0  0  0  0  0  0  0  0  0  0  0  0
  -12.8010   13.7420   70.0690 C   0  0  0  0  0  0  0  0  0  0  0  0
  -12.1130   12.4710   69.8740 N   0  0  0  0  0  0  0  0  0  0  0  0
  -12.6130   11.4150   70.5650 C   0  0  0  0  0  0  0  0  0  0  0  0
  -12.7750   10.2510   70.0590 N   0  0  0  0  0  0  0  0  0  0  0  0
  -12.8640   11.6610   71.8680 N   0  0  0  0  0  0  0  0  0  0  0  0
  -13.4170   12.9130   72.3310 C   0  0  0  0  0  0  0  0  0  0  0  0
  -12.7860   14.0240   71.5470 C   0  0  0  0  0  0  0  0  0  0  0  0
  -12.2350   15.1550   72.0440 C   0  0  0  0  0  0  0  0  0  0  0  0
  -11.7060   16.0900   71.1540 N   0  0  0  0  0  0  0  0  0  0  0  0
   -9.8070   17.7670   67.1750 C   0  0  0  0  0  0  0  0  0  0  0  0
  -10.4290   18.7740   66.4230 C   0  0  0  0  0  0  0  0  0  0  0  0
   -9.7360   19.8210   65.9520 N   0  0  0  0  0  0  0  0  0  0  0  0
  -10.3730   20.7660   65.2370 F   0  0  0  0  0  0  0  0  0  0  0  0
   -8.4530   19.9600   66.2070 N   0  0  0  0  0  0  0  0  0  0  0  0
   -7.7710   19.0530   66.9160 C   0  0  0  0  0  0  0  0  0  0  0  0
   -8.3990   17.8820   67.3820 C   0  0  0  0  0  0  0  0  0  0  0  0
   -6.4180   19.3640   67.1710 C   0  0  0  0  0  0  0  0  0  0  0  0
   -7.5390   16.9690   68.0460 C   0  0  0  0  0  0  0  0  0  0  0  0
   -6.2310   17.3270   68.4220 C   0  0  0  0  0  0  0  0  0  0  0  0
   -5.6760   18.5250   67.9950 C   0  0  0  0  0  0  0  0  0  0  0  0
   -5.4860   16.5070   69.3930 C   0  0  0  0  0  0  0  0  0  0  0  0
   -4.4210   18.9090   68.3820 O   0  0  0  0  0  0  0  0  0  0  0  0
   -4.1630   18.5890   69.7820 C   0  0  0  0  0  0  0  0  0  0  0  0
   -4.3780   17.1830   70.1840 C   0  0  0  0  0  0  0  0  0  0  0  0
   -3.0940   19.2660   70.3850 O   0  0  0  0  0  0  0  0  0  0  0  0
   -4.4360   19.6490   70.8160 C   0  0  0  0  0  0  0  0  0  0  0  0
   -3.8510   16.6500   71.1400 O   0  0  0  0  0  0  0  0  0  0  0  0
   -5.0800   20.7690   70.0870 O   0  0  0  0  0  0  0  0  0  0  0  0
   -4.3800   21.0390   71.1650 C   0  0  0  0  0  0  0  0  0  0  0  0
   -4.7040   21.6840   72.1530 O   0  0  0  0  0  0  0  0  0  0  0  0
   -5.8370   15.3620   69.6230 O   0  0  0  0  0  0  0  0  0  0  0  0
   -5.9510   20.6390   66.7380 N   0  0  0  0  0  0  0  0  0  0  0  0
  -10.4670   15.1860   65.8830 O   0  0  0  0  0  0  0  0  0  0  0  0
  -10.3450   13.7950   65.5350 C   0  0  0  0  0  0  0  0  0  0  0  0
  -10.3000   12.9450   66.6850 O   0  0  0  0  0  0  0  0  0  0  0  0
  -10.1170   11.6020   66.3610 C   0  0  0  0  0  0  0  0  0  0  0  0
   -9.6370   10.7440   67.2690 C   0  0  0  0  0  0  0  0  0  0  0  0
  -10.4730   11.0690   65.0100 C   0  0  0  0  0  0  0  0  0  0  0  0
   -9.3620   11.0700   68.5720 O   0  0  0  0  0  0  0  0  0  0  0  0
  -11.4320   11.9790   64.2490 C   0  0  0  0  0  0  0  0  0  0  0  0
  -10.0000   10.0630   64.5160 O   0  0  0  0  0  0  0  0  0  0  0  0
  -11.5700   13.4010   64.7410 C   0  0  0  0  0  0  0  0  0  0  0  0
  -12.0190   11.6250   63.2440 O   0  0  0  0  0  0  0  0  0  0  0  0
  -12.5470   14.1090   64.5280 O   0  0  0  0  0  0  0  0  0  0  0  0
  -12.1450   15.4750   73.4800 C   0  0  0  0  0  0  0  0  0  0  0  0
  -13.2390   16.1250   74.1050 N   0  0  0  0  0  0  0  0  0  0  0  0
  -12.2480   16.8430   73.8760 N   0  0  0  0  0  0  0  0  0  0  0  0
  1 39  1  0  0  0  0
  1  2  2  0  0  0  0
  1  6  1  0  0  0  0
  2  3  1  0  0  0  0
  2 16  1  0  0  0  0
  3  4  1  0  0  0  0
  4  5  2  0  0  0  0
  4 15  1  0  0  0  0
  5  6  1  0  0  0  0
  5  7  1  0  0  0  0
  7  8  1  0  0  0  0
  7 13  1  0  0  0  0
  8  9  1  0  0  0  0
  9 10  2  0  0  0  0
  9 11  1  0  0  0  0
 11 12  1  0  0  0  0
 12 13  1  0  0  0  0
 13 14  2  0  0  0  0
 14 15  1  0  0  0  0
 14 51  1  0  0  0  0
 16 17  2  0  0  0  0
 16 22  1  0  0  0  0
 17 18  1  0  0  0  0
 18 19  1  0  0  0  0
 18 20  2  0  0  0  0
 20 21  1  0  0  0  0
 21 22  2  0  0  0  0
 21 23  1  0  0  0  0
 22 24  1  0  0  0  0
 23 26  2  0  0  0  0
 23 38  1  0  0  0  0
 24 25  2  0  0  0  0
 25 26  1  0  0  0  0
 25 27  1  0  0  0  0
 26 28  1  0  0  0  0
 27 30  1  0  0  0  0
 27 37  2  0  0  0  0
 28 29  1  0  0  0  0
 29 30  1  0  0  0  0
 29 31  1  0  0  0  0
 29 32  1  0  0  0  0
 30 33  2  0  0  0  0
 31 32  1  0  0  0  0
 32 34  1  0  0  0  0
 32 35  1  0  0  0  0
 34 35  1  0  0  0  0
 35 36  2  0  0  0  0
 39 40  1  0  0  0  0
 40 41  1  0  0  0  0
 40 48  1  0  0  0  0
 41 42  1  0  0  0  0
 42 43  2  0  0  0  0
 42 44  1  0  0  0  0
 43 45  1  0  0  0  0
 44 46  1  0  0  0  0
 44 47  2  0  0  0  0
 46 48  1  0  0  0  0
 46 49  2  0  0  0  0
 48 50  2  0  0  0  0
 51 52  1  0  0  0  0
 51 53  1  0  0  0  0
 52 53  2  0  0  0  0
M  CHG  2  18   1  20   1
M  END