
 OpenBabel11272001263D

 54 62  0  0  1  0  0  0  0  0999 V2000
  -11.0670   15.6050   67.1510 C   0  0  0  0  0  0  0  0  0  0  0  0
  -10.6700   16.7250   67.8070 C   0  0  0  0  0  0  0  0  0  0  0  0
  -11.0700   16.9470   69.1390 O   0  0  0  0  0  0  0  0  0  0  0  0
  -11.6550   15.9310   69.8700 C   0  0  0  0  0  0  0  0  0  0  0  0
  -12.1100   14.8120   69.2890 C   0  0  0  0  0  0  0  0  0  0  0  0
  -11.9970   14.6170   67.8200 C   0  0  0  0  0  0  0  0  0  0  0  0
  -12.7620   13.7340   70.1110 C   0  0  0  0  0  0  0  0  0  0  0  0
  -12.0500   12.4910   69.8800 N   0  0  0  0  0  0  0  0  0  0  0  0
  -12.3390   11.3990   70.6160 C   0  0  0  0  0  0  0  0  0  0  0  0
  -11.8980   10.2310   70.3150 N   0  0  0  0  0  0  0  0  0  0  0  0
  -13.1000   11.5900   71.7070 N   0  0  0  0  0  0  0  0  0  0  0  0
  -13.3020   12.8390   72.3670 C   0  0  0  0  0  0  0  0  0  0  0  0
  -12.7480   13.9800   71.5880 C   0  0  0  0  0  0  0  0  0  0  0  0
  -12.2480   15.1300   72.0990 C   0  0  0  0  0  0  0  0  0  0  0  0
  -11.7600   16.0960   71.2280 N   0  0  0  0  0  0  0  0  0  0  0  0
  -14.6990   13.0010   72.4500 O   0  0  0  0  0  0  0  0  0  0  0  0
   -9.7270   17.7960   67.3450 C   0  0  0  0  0  0  0  0  0  0  0  0
  -10.3630   18.7250   66.5770 N   0  0  0  0  0  0  0  0  0  0  0  0
   -9.6560   19.7500   66.0780 C   0  0  0  0  0  0  0  0  0  0  0  0
  -10.3050   20.6350   65.3080 F   0  0  0  0  0  0  0  0  0  0  0  0
   -8.3170   19.9440   66.3110 C   0  0  0  0  0  0  0  0  0  0  0  0
   -7.6380   19.0170   67.0990 C   0  0  0  0  0  0  0  0  0  0  0  0
   -8.3270   17.8870   67.6120 C   0  0  0  0  0  0  0  0  0  0  0  0
   -6.2730   19.2040   67.3820 C   0  0  0  0  0  0  0  0  0  0  0  0
   -7.5430   16.9590   68.3360 C   0  0  0  0  0  0  0  0  0  0  0  0
   -6.2170   17.2250   68.7040 C   0  0  0  0  0  0  0  0  0  0  0  0
   -5.5190   16.3450   69.6510 C   0  0  0  0  0  0  0  0  0  0  0  0
   -5.5690   18.3400   68.2150 C   0  0  0  0  0  0  0  0  0  0  0  0
   -6.0010   15.2830   70.0200 O   0  0  0  0  0  0  0  0  0  0  0  0
   -4.2170   16.8540   70.2330 C   0  0  0  0  0  0  0  0  0  0  0  0
   -3.6520   16.2450   71.1320 O   0  0  0  0  0  0  0  0  0  0  0  0
   -3.7570   18.2030   69.7270 C   0  0  0  0  0  0  0  0  0  0  0  0
   -4.2510   18.5990   68.4440 O   0  0  0  0  0  0  0  0  0  0  0  0
   -5.6350   20.2680   66.8660 F   0  0  0  0  0  0  0  0  0  0  0  0
   -3.9560   19.3130   70.7180 C   0  0  0  0  0  0  0  0  0  0  0  0
   -4.9640   19.0710   71.7320 O   0  0  0  0  0  0  0  0  0  0  0  0
   -2.7660   19.9500   71.1660 O   0  0  0  0  0  0  0  0  0  0  0  0
   -3.6370   20.7220   70.4800 C   0  0  0  0  0  0  0  0  0  0  0  0
   -4.2330   21.7180   70.8510 O   0  0  0  0  0  0  0  0  0  0  0  0
  -10.5640   15.2400   65.9090 O   0  0  0  0  0  0  0  0  0  0  0  0
   -9.7450   14.0570   65.8800 C   0  0  0  0  0  0  0  0  0  0  0  0
   -9.2200   13.7620   67.1680 O   0  0  0  0  0  0  0  0  0  0  0  0
   -8.5800   12.5480   67.3020 C   0  0  0  0  0  0  0  0  0  0  0  0
   -7.8760   12.2780   68.4040 C   0  0  0  0  0  0  0  0  0  0  0  0
   -8.6820   11.4710   66.2700 C   0  0  0  0  0  0  0  0  0  0  0  0
   -7.7500   13.1760   69.3990 F   0  0  0  0  0  0  0  0  0  0  0  0
   -9.7630   11.6090   65.2240 C   0  0  0  0  0  0  0  0  0  0  0  0
   -7.8800   10.5360   66.2610 O   0  0  0  0  0  0  0  0  0  0  0  0
  -10.5660   12.8760   65.3570 C   0  0  0  0  0  0  0  0  0  0  0  0
  -10.5580   10.5010   65.1710 F   0  0  0  0  0  0  0  0  0  0  0  0
  -11.7330   12.9760   64.9750 O   0  0  0  0  0  0  0  0  0  0  0  0
  -12.1920   15.4490   73.5440 C   0  0  0  0  0  0  0  0  0  0  0  0
  -11.9160   16.7790   74.0090 O   0  0  0  0  0  0  0  0  0  0  0  0
  -13.2240   16.2050   74.2020 O   0  0  0  0  0  0  0  0  0  0  0  0
  1 40  1  0  0  0  0
  1  2  2  0  0  0  0
  1  6  1  0  0  0  0
  2  3  1  0  0  0  0
  2 17  1  0  0  0  0
  3  4  1  0  0  0  0
  4  5  2  0  0  0  0
  4 15  1  0  0  0  0
  5  6  1  0  0  0  0
  5  7  1  0  0  0  0
  7  8  1  0  0  0  0
  7 13  1  0  0  0  0
  8  9  1  0  0  0  0
  9 10  2  0  0  0  0
  9 11  1  0  0  0  0
 11 12  1  0  0  0  0
 12 13  1  0  0  0  0
 12 16  1  0  0  0  0
 13 14  2  0  0  0  0
 14 15  1  0  0  0  0
 14 52  1  0  0  0  0
 17 18  2  0  0  0  0
 17 23  1  0  0  0  0
 18 19  1  0  0  0  0
 19 20  1  0  0  0  0
 19 21  2  0  0  0  0
 21 22  1  0  0  0  0
 22 23  2  0  0  0  0
 22 24  1  0  0  0  0
 23 25  1  0  0  0  0
 24 28  2  0  0  0  0
 24 34  1  0  0  0  0
 25 26  2  0  0  0  0
 26 27  1  0  0  0  0
 26 28  1  0  0  0  0
 27 29  2  0  0  0  0
 27 30  1  0  0  0  0
 28 33  1  0  0  0  0
 30 31  2  0  0  0  0
 30 32  1  0  0  0  0
 32 33  1  0  0  0  0
 32 35  1  0  0  0  0
 35 36  1  0  0  0  0
 35 37  1  0  0  0  0
 35 38  1  0  0  0  0
 37 38  1  0  0  0  0
 38 39  2  0  0  0  0
 40 41  1  0  0  0  0
 41 42  1  0  0  0  0
 41 49  1  0  0  0  0
 42 43  1  0  0  0  0
 43 44  2  0  0  0  0
 43 45  1  0  0  0  0
 44 46  1  0  0  0  0
 45 47  1  0  0  0  0
 45 48  2  0  0  0  0
 47 49  1  0  0  0  0
 47 50  1  0  0  0  0
 49 51  2  0  0  0  0
 52 53  1  0  0  0  0
 52 54  1  0  0  0  0
 53 54  1  0  0  0  0
M  END
