
 OpenBabel09202008573D

 46 52  0  0  1  0  0  0  0  0999 V2000
  -10.5600   16.5140   67.9910 C   0  0  0  0  0  0  0  0  0  0  0  0
  -10.1660   15.2800   67.5970 C   0  0  0  0  0  0  0  0  0  0  0  0
  -10.6450   14.0840   68.3580 C   0  0  0  0  0  0  0  0  0  0  0  0
  -11.5750   14.3790   69.4800 C   0  0  0  0  0  0  0  0  0  0  0  0
  -11.9120   15.6860   69.7900 C   0  0  0  0  0  0  0  0  0  0  0  0
  -11.4160   16.7540   69.0680 O   0  0  0  0  0  0  0  0  0  0  0  0
  -12.7390   16.0010   70.8080 N   0  0  0  0  0  0  0  0  0  0  0  0
  -13.2140   14.9660   71.5190 C   0  0  0  0  0  0  0  0  0  0  0  0
  -14.0240   15.3360   72.5440 O   0  0  0  0  0  0  0  0  0  0  0  0
  -12.9370   13.6180   71.2750 C   0  0  0  0  0  0  0  0  0  0  0  0
  -12.0960   13.3200   70.2150 C   0  0  0  0  0  0  0  0  0  0  0  0
  -11.7780   12.0530   69.8900 N   0  0  0  0  0  0  0  0  0  0  0  0
  -12.3020   11.0870   70.6510 C   0  0  0  0  0  0  0  0  0  0  0  0
  -13.1060   11.2470   71.7010 N   0  0  0  0  0  0  0  0  0  0  0  0
  -13.4140   12.5230   71.9930 C   0  0  0  0  0  0  0  0  0  0  0  0
  -11.9530    9.8260   70.2980 O   0  0  0  0  0  0  0  0  0  0  0  0
  -10.1050   17.7500   67.3190 C   0  0  0  0  0  0  0  0  0  0  0  0
  -11.0290   18.3030   66.4880 N   0  0  0  0  0  0  0  0  0  0  0  0
  -10.6960   19.4590   65.8780 C   0  0  0  0  0  0  0  0  0  0  0  0
   -9.4910   20.1110   66.0590 C   0  0  0  0  0  0  0  0  0  0  0  0
   -8.5470   19.5510   66.9250 C   0  0  0  0  0  0  0  0  0  0  0  0
   -7.3420   20.2200   67.2000 C   0  0  0  0  0  0  0  0  0  0  0  0
   -8.8310   18.3220   67.5590 C   0  0  0  0  0  0  0  0  0  0  0  0
   -6.4220   19.6970   68.1090 C   0  0  0  0  0  0  0  0  0  0  0  0
   -5.3450   20.4890   68.3930 O   0  0  0  0  0  0  0  0  0  0  0  0
   -6.6340   18.4410   68.6720 C   0  0  0  0  0  0  0  0  0  0  0  0
   -4.5780   20.1410   69.5650 C   0  0  0  0  0  0  0  0  0  0  0  0
   -4.3130   18.6340   69.6130 C   0  0  0  0  0  0  0  0  0  0  0  0
   -5.6350   17.8580   69.6260 C   0  0  0  0  0  0  0  0  0  0  0  0
   -3.5260   18.2680   70.7520 O   0  0  0  0  0  0  0  0  0  0  0  0
   -5.3410   16.4880   69.3200 O   0  0  0  0  0  0  0  0  0  0  0  0
   -7.8350   17.7640   68.3970 C   0  0  0  0  0  0  0  0  0  0  0  0
   -5.2090   20.7040   70.8540 C   0  0  0  0  0  0  0  0  0  0  0  0
   -4.4310   21.7930   71.3550 O   0  0  0  0  0  0  0  0  0  0  0  0
   -9.3240   15.0820   66.4990 O   0  0  0  0  0  0  0  0  0  0  0  0
   -9.9310   14.5880   65.2830 C   0  0  0  0  0  0  0  0  0  0  0  0
   -9.7600   13.1580   65.1790 O   0  0  0  0  0  0  0  0  0  0  0  0
  -10.5740   12.5800   64.1490 C   0  0  0  0  0  0  0  0  0  0  0  0
  -12.0540   12.6450   64.5600 C   0  0  0  0  0  0  0  0  0  0  0  0
  -12.2690   13.7500   65.6160 C   0  0  0  0  0  0  0  0  0  0  0  0
  -12.8540   12.9330   63.3980 O   0  0  0  0  0  0  0  0  0  0  0  0
  -11.4320   14.9830   65.2420 C   0  0  0  0  0  0  0  0  0  0  0  0
  -13.6580   14.0840   65.6960 O   0  0  0  0  0  0  0  0  0  0  0  0
  -11.7970   15.3630   63.8850 O   0  0  0  0  0  0  0  0  0  0  0  0
  -10.1230   11.1340   63.9190 C   0  0  0  0  0  0  0  0  0  0  0  0
  -10.2500   10.3940   65.1380 O   0  0  0  0  0  0  0  0  0  0  0  0
  1 17  1  0  0  0  0
  1  2  2  0  0  0  0
  1  6  1  0  0  0  0
  2 35  1  0  0  0  0
  2  3  1  0  0  0  0
  3  4  1  0  0  0  0
  4  5  2  0  0  0  0
  4 11  1  0  0  0  0
  5  6  1  0  0  0  0
  5  7  1  0  0  0  0
  7  8  2  0  0  0  0
  8  9  1  0  0  0  0
  8 10  1  0  0  0  0
 10 11  2  0  0  0  0
 10 15  1  0  0  0  0
 11 12  1  0  0  0  0
 12 13  2  0  0  0  0
 13 14  1  0  0  0  0
 13 16  1  0  0  0  0
 14 15  2  0  0  0  0
 17 18  1  0  0  0  0
 17 23  2  0  0  0  0
 18 19  2  0  0  0  0
 19 20  1  0  0  0  0
 20 21  2  0  0  0  0
 21 22  1  0  0  0  0
 21 23  1  0  0  0  0
 22 24  2  0  0  0  0
 23 32  1  0  0  0  0
 24 25  1  0  0  0  0
 24 26  1  0  0  0  0
 25 27  1  0  0  0  0
 26 32  2  0  0  0  0
 26 29  1  0  0  0  0
 27 28  1  0  0  0  0
 27 33  1  0  0  0  0
 28 29  1  0  0  0  0
 28 30  1  0  0  0  0
 29 31  1  0  0  0  0
 33 34  1  0  0  0  0
 35 36  1  0  0  0  0
 36 37  1  0  0  0  0
 36 42  1  0  0  0  0
 37 38  1  0  0  0  0
 38 39  1  0  0  0  0
 38 45  1  0  0  0  0
 39 40  1  0  0  0  0
 39 41  1  0  0  0  0
 40 42  1  0  0  0  0
 40 43  1  0  0  0  0
 42 44  1  0  0  0  0
 45 46  1  0  0  0  0
M  END
