
 OpenBabel11212014083D

 53 61  0  0  1  0  0  0  0  0999 V2000
   -9.4340   17.5890   67.5650 C   0  0  0  0  0  0  0  0  0  0  0  0
  -10.1690   18.3760   66.7500 N   0  0  0  0  0  0  0  0  0  0  0  0
   -9.5850   19.4720   66.2700 C   0  0  0  0  0  0  0  0  0  0  0  0
   -8.3360   19.8790   66.5610 N   0  0  0  0  0  0  0  0  0  0  0  0
   -7.6280   19.0910   67.3670 C   0  0  0  0  0  0  0  0  0  0  0  0
   -8.0970   17.8890   67.9040 C   0  0  0  0  0  0  0  0  0  0  0  0
   -7.2340   17.1210   68.7390 C   0  0  0  0  0  0  0  0  0  0  0  0
   -5.9480   17.5860   69.0630 C   0  0  0  0  0  0  0  0  0  0  0  0
   -5.0680   16.8170   69.9580 C   0  0  0  0  0  0  0  0  0  0  0  0
   -5.4050   15.7520   70.4390 O   0  0  0  0  0  0  0  0  0  0  0  0
   -3.7260   17.4460   70.2520 C   0  0  0  0  0  0  0  0  0  0  0  0
   -2.7240   16.7660   70.3970 O   0  0  0  0  0  0  0  0  0  0  0  0
   -3.7540   18.9540   70.2220 C   0  0  0  0  0  0  0  0  0  0  0  0
   -4.3640   19.4390   68.9910 O   0  0  0  0  0  0  0  0  0  0  0  0
   -5.5190   18.8190   68.5930 C   0  0  0  0  0  0  0  0  0  0  0  0
   -6.3610   19.5340   67.7300 C   0  0  0  0  0  0  0  0  0  0  0  0
   -5.9820   20.7940   67.2740 N   0  0  0  0  0  0  0  0  0  0  0  0
   -5.6400   21.7640   66.9490 N   0  0  0  0  0  0  0  0  0  0  0  0
  -10.1980   16.4970   68.2000 C   0  0  0  0  0  0  0  0  0  0  0  0
  -10.3900   15.2780   67.6470 C   0  0  0  0  0  0  0  0  0  0  0  0
  -11.1470   14.2180   68.4120 C   0  0  0  0  0  0  0  0  0  0  0  0
  -11.5980   14.6770   69.7500 C   0  0  0  0  0  0  0  0  0  0  0  0
  -11.4370   15.9320   70.1900 C   0  0  0  0  0  0  0  0  0  0  0  0
  -12.2630   13.6910   70.6400 C   0  0  0  0  0  0  0  0  0  0  0  0
  -10.7450   16.8720   69.4340 O   0  0  0  0  0  0  0  0  0  0  0  0
  -11.9350   16.3240   71.4100 N   0  0  0  0  0  0  0  0  0  0  0  0
  -12.6370   15.4780   72.2690 C   0  0  0  0  0  0  0  0  0  0  0  0
  -12.7910   14.1810   71.9300 C   0  0  0  0  0  0  0  0  0  0  0  0
  -13.4290   13.1330   72.7300 C   0  0  0  0  0  0  0  0  0  0  0  0
  -13.4940   11.9020   72.3560 N   0  0  0  0  0  0  0  0  0  0  0  0
  -12.9560   11.5500   71.1350 C   0  0  0  0  0  0  0  0  0  0  0  0
  -12.3540   12.4530   70.2830 N   0  0  0  0  0  0  0  0  0  0  0  0
  -13.0130   10.3800   70.7810 O   0  0  0  0  0  0  0  0  0  0  0  0
   -9.8700   14.9450   66.3970 O   0  0  0  0  0  0  0  0  0  0  0  0
  -10.1320   13.6000   65.9380 C   0  0  0  0  0  0  0  0  0  0  0  0
  -10.4050   13.5730   64.5370 O   0  0  0  0  0  0  0  0  0  0  0  0
  -10.7010   12.3150   64.0440 C   0  0  0  0  0  0  0  0  0  0  0  0
  -11.7590   12.0990   63.2540 C   0  0  0  0  0  0  0  0  0  0  0  0
   -9.8450   11.1500   64.3890 C   0  0  0  0  0  0  0  0  0  0  0  0
  -12.6590   13.0800   62.9310 O   0  0  0  0  0  0  0  0  0  0  0  0
   -9.1180   11.3180   65.7050 C   0  0  0  0  0  0  0  0  0  0  0  0
   -9.7490   10.1390   63.7160 O   0  0  0  0  0  0  0  0  0  0  0  0
   -8.9460   12.7060   66.2650 C   0  0  0  0  0  0  0  0  0  0  0  0
   -8.7780   10.3460   66.3610 O   0  0  0  0  0  0  0  0  0  0  0  0
   -7.9670   13.0050   66.9340 O   0  0  0  0  0  0  0  0  0  0  0  0
  -13.1600   16.0920   73.5160 C   0  0  0  0  0  0  0  0  0  0  0  0
  -12.6150   15.7770   74.8110 O   0  0  0  0  0  0  0  0  0  0  0  0
  -12.4040   17.0790   74.2350 O   0  0  0  0  0  0  0  0  0  0  0  0
   -4.3590   19.5610   71.4690 C   0  0  0  0  0  0  0  0  0  0  0  0
   -5.3520   18.7650   72.1360 O   0  0  0  0  0  0  0  0  0  0  0  0
   -3.4330   20.1940   72.3480 O   0  0  0  0  0  0  0  0  0  0  0  0
   -4.3560   20.9920   71.7770 C   0  0  0  0  0  0  0  0  0  0  0  0
   -4.1680   21.9680   71.0730 O   0  0  0  0  0  0  0  0  0  0  0  0
  1 19  1  0  0  0  0
  1  2  2  0  0  0  0
  1  6  1  0  0  0  0
  2  3  1  0  0  0  0
  3  4  2  0  0  0  0
  4  5  1  0  0  0  0
  5  6  2  0  0  0  0
  5 16  1  0  0  0  0
  6  7  1  0  0  0  0
  7  8  2  0  0  0  0
  8  9  1  0  0  0  0
  8 15  1  0  0  0  0
  9 10  2  0  0  0  0
  9 11  1  0  0  0  0
 11 12  2  0  0  0  0
 11 13  1  0  0  0  0
 13 14  1  0  0  0  0
 13 49  1  0  0  0  0
 14 15  1  0  0  0  0
 15 16  2  0  0  0  0
 16 17  1  0  0  0  0
 17 18  3  0  0  0  0
 19 20  2  0  0  0  0
 19 25  1  0  0  0  0
 20 34  1  0  0  0  0
 20 21  1  0  0  0  0
 21 22  1  0  0  0  0
 22 23  2  0  0  0  0
 22 24  1  0  0  0  0
 23 25  1  0  0  0  0
 23 26  1  0  0  0  0
 24 32  2  0  0  0  0
 24 28  1  0  0  0  0
 26 27  1  0  0  0  0
 27 28  2  0  0  0  0
 27 46  1  0  0  0  0
 28 29  1  0  0  0  0
 29 30  2  0  0  0  0
 30 31  1  0  0  0  0
 31 32  1  0  0  0  0
 31 33  2  0  0  0  0
 34 35  1  0  0  0  0
 35 36  1  0  0  0  0
 35 43  1  0  0  0  0
 36 37  1  0  0  0  0
 37 38  2  0  0  0  0
 37 39  1  0  0  0  0
 38 40  1  0  0  0  0
 39 41  1  0  0  0  0
 39 42  2  0  0  0  0
 41 43  1  0  0  0  0
 41 44  2  0  0  0  0
 43 45  2  0  0  0  0
 46 47  1  0  0  0  0
 46 48  1  0  0  0  0
 47 48  1  0  0  0  0
 49 50  1  0  0  0  0
 49 51  1  0  0  0  0
 49 52  1  0  0  0  0
 51 52  1  0  0  0  0
 52 53  2  0  0  0  0
M  CHG  1  17   1
M  END