
 OpenBabel11272020183D

 54 62  0  0  1  0  0  0  0  0999 V2000
  -10.6670   15.7410   67.3810 C   0  0  0  0  0  0  0  0  0  0  0  0
  -10.5020   16.8840   68.0870 C   0  0  0  0  0  0  0  0  0  0  0  0
  -10.9900   17.0550   69.3920 O   0  0  0  0  0  0  0  0  0  0  0  0
  -11.6720   16.0160   70.0220 C   0  0  0  0  0  0  0  0  0  0  0  0
  -11.8980   14.8530   69.3870 C   0  0  0  0  0  0  0  0  0  0  0  0
  -11.4360   14.6010   67.9890 C   0  0  0  0  0  0  0  0  0  0  0  0
  -12.6270   13.7150   70.0330 C   0  0  0  0  0  0  0  0  0  0  0  0
  -11.7370   12.6260   70.1250 O   0  0  0  0  0  0  0  0  0  0  0  0
  -12.1610   11.5240   70.8040 C   0  0  0  0  0  0  0  0  0  0  0  0
  -11.5600   10.4590   70.7080 O   0  0  0  0  0  0  0  0  0  0  0  0
  -13.2650   11.6610   71.5760 O   0  0  0  0  0  0  0  0  0  0  0  0
  -13.7230   12.8710   71.9420 C   0  0  0  0  0  0  0  0  0  0  0  0
  -14.7330   13.0200   72.6190 O   0  0  0  0  0  0  0  0  0  0  0  0
  -13.0250   14.0240   71.4150 C   0  0  0  0  0  0  0  0  0  0  0  0
  -12.7690   15.2110   72.0290 C   0  0  0  0  0  0  0  0  0  0  0  0
  -12.0970   16.2130   71.3190 O   0  0  0  0  0  0  0  0  0  0  0  0
   -9.7400   18.0550   67.5940 C   0  0  0  0  0  0  0  0  0  0  0  0
  -10.4180   18.7850   66.6770 N   0  0  0  0  0  0  0  0  0  0  0  0
   -9.7820   19.8480   66.1450 C   0  0  0  0  0  0  0  0  0  0  0  0
  -10.4470   20.5700   65.2340 F   0  0  0  0  0  0  0  0  0  0  0  0
   -8.4840   20.2090   66.4470 C   0  0  0  0  0  0  0  0  0  0  0  0
   -7.7640   19.4290   67.3560 C   0  0  0  0  0  0  0  0  0  0  0  0
   -8.3950   18.3170   67.9600 C   0  0  0  0  0  0  0  0  0  0  0  0
   -6.4180   19.7210   67.6570 C   0  0  0  0  0  0  0  0  0  0  0  0
   -7.6260   17.5360   68.8540 C   0  0  0  0  0  0  0  0  0  0  0  0
   -6.2790   17.8400   69.1190 C   0  0  0  0  0  0  0  0  0  0  0  0
   -5.4910   16.9430   69.9690 C   0  0  0  0  0  0  0  0  0  0  0  0
   -5.6650   18.9340   68.5300 C   0  0  0  0  0  0  0  0  0  0  0  0
   -5.9760   15.9080   70.4030 O   0  0  0  0  0  0  0  0  0  0  0  0
   -4.0430   17.3060   70.2030 C   0  0  0  0  0  0  0  0  0  0  0  0
   -3.2580   16.4750   70.6370 O   0  0  0  0  0  0  0  0  0  0  0  0
   -3.6910   18.7360   69.8550 C   0  0  0  0  0  0  0  0  0  0  0  0
   -4.3520   19.2690   68.7010 O   0  0  0  0  0  0  0  0  0  0  0  0
   -5.8290   20.7740   67.0650 F   0  0  0  0  0  0  0  0  0  0  0  0
   -3.8930   19.6480   71.0290 C   0  0  0  0  0  0  0  0  0  0  0  0
   -4.9010   19.2560   71.9810 O   0  0  0  0  0  0  0  0  0  0  0  0
   -2.6980   20.2060   71.5790 O   0  0  0  0  0  0  0  0  0  0  0  0
   -3.5900   21.1300   70.9490 C   0  0  0  0  0  0  0  0  0  0  0  0
   -4.3200   21.9630   71.8670 O   0  0  0  0  0  0  0  0  0  0  0  0
  -10.1850   15.5890   66.0810 O   0  0  0  0  0  0  0  0  0  0  0  0
  -10.0590   14.2440   65.5560 C   0  0  0  0  0  0  0  0  0  0  0  0
   -9.9090   13.2860   66.6130 O   0  0  0  0  0  0  0  0  0  0  0  0
   -9.7630   11.9640   66.2410 C   0  0  0  0  0  0  0  0  0  0  0  0
   -9.1920   11.0670   67.0580 C   0  0  0  0  0  0  0  0  0  0  0  0
  -10.3130   11.4520   64.9580 C   0  0  0  0  0  0  0  0  0  0  0  0
   -8.6610   11.3860   68.2830 O   0  0  0  0  0  0  0  0  0  0  0  0
  -11.2410   12.4220   64.2640 C   0  0  0  0  0  0  0  0  0  0  0  0
  -10.0350   10.3630   64.4840 O   0  0  0  0  0  0  0  0  0  0  0  0
  -11.2740   13.8670   64.7150 C   0  0  0  0  0  0  0  0  0  0  0  0
  -11.9480   12.0420   63.3430 O   0  0  0  0  0  0  0  0  0  0  0  0
  -12.1850   14.6110   64.3900 O   0  0  0  0  0  0  0  0  0  0  0  0
  -13.0870   15.5620   73.4300 C   0  0  0  0  0  0  0  0  0  0  0  0
  -12.2080   15.0200   74.4560 N   0  0  0  0  0  0  0  0  0  0  0  0
  -12.3560   16.4340   74.3150 N   0  0  0  0  0  0  0  0  0  0  0  0
  1 40  1  0  0  0  0
  1  2  2  0  0  0  0
  1  6  1  0  0  0  0
  2  3  1  0  0  0  0
  2 17  1  0  0  0  0
  3  4  1  0  0  0  0
  4  5  2  0  0  0  0
  4 16  1  0  0  0  0
  5  6  1  0  0  0  0
  5  7  1  0  0  0  0
  7  8  1  0  0  0  0
  7 14  1  0  0  0  0
  8  9  1  0  0  0  0
  9 10  2  0  0  0  0
  9 11  1  0  0  0  0
 11 12  1  0  0  0  0
 12 13  2  0  0  0  0
 12 14  1  0  0  0  0
 14 15  2  0  0  0  0
 15 16  1  0  0  0  0
 15 52  1  0  0  0  0
 17 18  2  0  0  0  0
 17 23  1  0  0  0  0
 18 19  1  0  0  0  0
 19 20  1  0  0  0  0
 19 21  2  0  0  0  0
 21 22  1  0  0  0  0
 22 23  2  0  0  0  0
 22 24  1  0  0  0  0
 23 25  1  0  0  0  0
 24 28  2  0  0  0  0
 24 34  1  0  0  0  0
 25 26  2  0  0  0  0
 26 27  1  0  0  0  0
 26 28  1  0  0  0  0
 27 29  2  0  0  0  0
 27 30  1  0  0  0  0
 28 33  1  0  0  0  0
 30 31  2  0  0  0  0
 30 32  1  0  0  0  0
 32 33  1  0  0  0  0
 32 35  1  0  0  0  0
 35 36  1  0  0  0  0
 35 37  1  0  0  0  0
 35 38  1  0  0  0  0
 37 38  1  0  0  0  0
 38 39  1  0  0  0  0
 40 41  1  0  0  0  0
 41 42  1  0  0  0  0
 41 49  1  0  0  0  0
 42 43  1  0  0  0  0
 43 44  2  0  0  0  0
 43 45  1  0  0  0  0
 44 46  1  0  0  0  0
 45 47  1  0  0  0  0
 45 48  2  0  0  0  0
 47 49  1  0  0  0  0
 47 50  2  0  0  0  0
 49 51  2  0  0  0  0
 52 53  1  0  0  0  0
 52 54  1  0  0  0  0
 53 54  1  0  0  0  0
M  CHG  1  16   1
M  END