
 OpenBabel09202022083D

 45 51  0  0  1  0  0  0  0  0999 V2000
  -10.6340   16.6780   68.3020 C   0  0  0  0  0  0  0  0  0  0  0  0
  -10.3440   15.4660   67.7750 C   0  0  0  0  0  0  0  0  0  0  0  0
  -10.9910   14.2200   68.3220 C   0  0  0  0  0  0  0  0  0  0  0  0
  -11.7550   14.4450   69.5870 C   0  0  0  0  0  0  0  0  0  0  0  0
  -12.0120   15.7370   70.0160 C   0  0  0  0  0  0  0  0  0  0  0  0
  -11.5950   16.8340   69.2980 O   0  0  0  0  0  0  0  0  0  0  0  0
  -12.6830   16.0340   71.1450 N   0  0  0  0  0  0  0  0  0  0  0  0
  -13.1080   14.9870   71.8610 C   0  0  0  0  0  0  0  0  0  0  0  0
  -13.7560   15.3410   73.0010 O   0  0  0  0  0  0  0  0  0  0  0  0
  -12.9300   13.6530   71.5100 C   0  0  0  0  0  0  0  0  0  0  0  0
  -12.2380   13.3730   70.3340 C   0  0  0  0  0  0  0  0  0  0  0  0
  -12.0390   12.1060   69.9240 N   0  0  0  0  0  0  0  0  0  0  0  0
  -12.5330   11.1220   70.6950 C   0  0  0  0  0  0  0  0  0  0  0  0
  -13.2020   11.2800   71.8440 N   0  0  0  0  0  0  0  0  0  0  0  0
  -13.3860   12.5560   72.2320 C   0  0  0  0  0  0  0  0  0  0  0  0
  -10.0300   17.9730   67.8460 C   0  0  0  0  0  0  0  0  0  0  0  0
  -10.8900   18.7880   67.1720 N   0  0  0  0  0  0  0  0  0  0  0  0
  -10.4410   19.9820   66.7450 C   0  0  0  0  0  0  0  0  0  0  0  0
   -9.1720   20.4600   66.9970 C   0  0  0  0  0  0  0  0  0  0  0  0
   -8.2830   19.6610   67.7160 C   0  0  0  0  0  0  0  0  0  0  0  0
   -6.9970   20.1520   68.0280 C   0  0  0  0  0  0  0  0  0  0  0  0
   -8.6840   18.3660   68.1320 C   0  0  0  0  0  0  0  0  0  0  0  0
   -6.0870   19.3840   68.7510 C   0  0  0  0  0  0  0  0  0  0  0  0
   -4.8990   19.9820   69.0670 O   0  0  0  0  0  0  0  0  0  0  0  0
   -6.4280   18.0850   69.0910 C   0  0  0  0  0  0  0  0  0  0  0  0
   -4.1710   19.3880   70.1430 C   0  0  0  0  0  0  0  0  0  0  0  0
   -4.1530   17.8800   70.1890 C   0  0  0  0  0  0  0  0  0  0  0  0
   -5.4500   17.2290   69.7740 C   0  0  0  0  0  0  0  0  0  0  0  0
   -3.2040   17.2200   70.5850 O   0  0  0  0  0  0  0  0  0  0  0  0
   -5.6500   16.0440   69.9870 O   0  0  0  0  0  0  0  0  0  0  0  0
   -7.6990   17.5800   68.7840 C   0  0  0  0  0  0  0  0  0  0  0  0
   -4.6220   19.9180   71.5120 C   0  0  0  0  0  0  0  0  0  0  0  0
   -3.5100   20.0950   72.3890 O   0  0  0  0  0  0  0  0  0  0  0  0
   -9.3760   15.3110   66.7940 O   0  0  0  0  0  0  0  0  0  0  0  0
   -9.7000   14.5000   65.6660 C   0  0  0  0  0  0  0  0  0  0  0  0
  -10.1090   13.1800   66.0390 O   0  0  0  0  0  0  0  0  0  0  0  0
  -10.3110   12.3390   64.8950 C   0  0  0  0  0  0  0  0  0  0  0  0
  -11.4510   12.8450   64.0380 C   0  0  0  0  0  0  0  0  0  0  0  0
  -11.9730   12.2220   63.1300 O   0  0  0  0  0  0  0  0  0  0  0  0
  -11.8370   14.2790   64.3290 C   0  0  0  0  0  0  0  0  0  0  0  0
  -12.9710   14.6660   64.1050 O   0  0  0  0  0  0  0  0  0  0  0  0
  -10.7940   15.2170   64.8830 C   0  0  0  0  0  0  0  0  0  0  0  0
  -10.8110   16.4040   64.5970 O   0  0  0  0  0  0  0  0  0  0  0  0
  -10.6290   10.9230   65.3700 C   0  0  0  0  0  0  0  0  0  0  0  0
  -11.3560   10.9750   66.5970 O   0  0  0  0  0  0  0  0  0  0  0  0
  1 16  1  0  0  0  0
  1  2  2  0  0  0  0
  1  6  1  0  0  0  0
  2 34  1  0  0  0  0
  2  3  1  0  0  0  0
  3  4  1  0  0  0  0
  4  5  2  0  0  0  0
  4 11  1  0  0  0  0
  5  6  1  0  0  0  0
  5  7  1  0  0  0  0
  7  8  2  0  0  0  0
  8  9  1  0  0  0  0
  8 10  1  0  0  0  0
 10 11  2  0  0  0  0
 10 15  1  0  0  0  0
 11 12  1  0  0  0  0
 12 13  2  0  0  0  0
 13 14  1  0  0  0  0
 14 15  2  0  0  0  0
 16 17  1  0  0  0  0
 16 22  2  0  0  0  0
 17 18  2  0  0  0  0
 18 19  1  0  0  0  0
 19 20  2  0  0  0  0
 20 21  1  0  0  0  0
 20 22  1  0  0  0  0
 21 23  2  0  0  0  0
 22 31  1  0  0  0  0
 23 24  1  0  0  0  0
 23 25  1  0  0  0  0
 24 26  1  0  0  0  0
 25 31  2  0  0  0  0
 25 28  1  0  0  0  0
 26 27  1  0  0  0  0
 26 32  1  0  0  0  0
 27 28  1  0  0  0  0
 27 29  2  0  0  0  0
 28 30  2  0  0  0  0
 32 33  1  0  0  0  0
 34 35  1  0  0  0  0
 35 36  1  0  0  0  0
 35 42  1  0  0  0  0
 36 37  1  0  0  0  0
 37 38  1  0  0  0  0
 37 44  1  0  0  0  0
 38 39  2  0  0  0  0
 38 40  1  0  0  0  0
 40 41  2  0  0  0  0
 40 42  1  0  0  0  0
 42 43  2  0  0  0  0
 44 45  1  0  0  0  0
M  END
