
 OpenBabel10242006033D

 87101  0  0  1  0  0  0  0  0999 V2000
  -12.4310   13.8830   65.1040 O   0  0  0  0  0  0  0  0  0  0  0  0
  -11.4940   13.3020   66.0340 C   0  0  0  0  0  0  0  0  0  0  0  0
  -11.8430   13.6500   67.4950 C   0  0  0  0  0  0  0  0  0  0  0  0
  -11.8680   15.0920   67.6450 O   0  0  0  0  0  0  0  0  0  0  0  0
  -10.7830   15.7800   67.1810 C   0  0  0  0  0  0  0  0  0  0  0  0
   -9.8300   15.1860   66.3630 C   0  0  0  0  0  0  0  0  0  0  0  0
  -10.1070   13.8720   65.6920 C   0  0  0  0  0  0  0  0  0  0  0  0
   -9.9690   14.0830   64.2770 O   0  0  0  0  0  0  0  0  0  0  0  0
   -8.6000   15.8310   66.2280 C   0  0  0  0  0  0  0  0  0  0  0  0
   -8.2990   17.0800   66.8130 C   0  0  0  0  0  0  0  0  0  0  0  0
   -9.3820   17.8090   67.3870 C   0  0  0  0  0  0  0  0  0  0  0  0
  -10.5910   17.0960   67.5930 C   0  0  0  0  0  0  0  0  0  0  0  0
  -11.5770   17.6710   68.3190 F   0  0  0  0  0  0  0  0  0  0  0  0
   -9.1200   19.1530   67.7240 C   0  0  0  0  0  0  0  0  0  0  0  0
  -10.3580   20.2140   68.3030 Cl  0  0  0  0  0  0  0  0  0  0  0  0
   -7.8390   19.7400   67.5710 C   0  0  0  0  0  0  0  0  0  0  0  0
   -6.7010   18.9940   67.2020 C   0  0  0  0  0  0  0  0  0  0  0  0
   -6.9840   17.6400   66.8590 C   0  0  0  0  0  0  0  0  0  0  0  0
   -5.6480   16.5020   66.6120 Cl  0  0  0  0  0  0  0  0  0  0  0  0
  -10.9520   12.9350   68.5900 C   0  0  0  0  0  0  0  0  0  0  0  0
   -9.6610   12.3920   67.9330 C   0  0  0  0  0  0  0  0  0  0  0  0
   -8.8410   11.4820   68.8430 C   0  0  0  0  0  0  0  0  0  0  0  0
   -9.6630   10.3620   69.4040 C   0  0  0  0  0  0  0  0  0  0  0  0
  -10.9860   10.5780   69.7470 C   0  0  0  0  0  0  0  0  0  0  0  0
   -9.0940    9.1040   69.6740 C   0  0  0  0  0  0  0  0  0  0  0  0
  -11.7570   11.8200   69.3330 C   0  0  0  0  0  0  0  0  0  0  0  0
  -11.6690    9.6030   70.5080 C   0  0  0  0  0  0  0  0  0  0  0  0
  -12.5070   12.3550   70.5780 C   0  0  0  0  0  0  0  0  0  0  0  0
  -11.6400   13.0640   71.3720 F   0  0  0  0  0  0  0  0  0  0  0  0
  -13.1970   11.2870   71.4420 C   0  0  0  0  0  0  0  0  0  0  0  0
  -13.1290    9.8980   70.7990 C   0  0  0  0  0  0  0  0  0  0  0  0
  -13.8210    8.8140   71.6200 C   0  0  0  0  0  0  0  0  0  0  0  0
  -12.9130    8.3290   72.7320 C   0  0  0  0  0  0  0  0  0  0  0  0
  -11.6520    7.6780   72.1480 C   0  0  0  0  0  0  0  0  0  0  0  0
  -11.0100    8.4460   70.9920 C   0  0  0  0  0  0  0  0  0  0  0  0
  -10.4900    7.5430   73.5170 Cl  0  0  0  0  0  0  0  0  0  0  0  0
   -9.7480    8.0960   70.4320 C   0  0  0  0  0  0  0  0  0  0  0  0
   -9.0920    6.7530   70.5920 C   0  0  0  0  0  0  0  0  0  0  0  0
   -9.8280    5.5490   70.5910 C   0  0  0  0  0  0  0  0  0  0  0  0
   -9.2400    4.2890   70.8360 C   0  0  0  0  0  0  0  0  0  0  0  0
  -10.1120    3.1420   71.3580 C   0  0  0  0  0  0  0  0  0  0  0  0
   -7.8470    4.1780   70.8190 C   0  0  0  0  0  0  0  0  0  0  0  0
  -10.4880    3.5200   72.8120 C   0  0  0  0  0  0  0  0  0  0  0  0
   -9.4430    1.7410   71.2850 C   0  0  0  0  0  0  0  0  0  0  0  0
  -11.2710    2.4430   73.5440 C   0  0  0  0  0  0  0  0  0  0  0  0
  -10.5130    1.1180   73.5480 C   0  0  0  0  0  0  0  0  0  0  0  0
  -10.2370    0.6670   72.0940 C   0  0  0  0  0  0  0  0  0  0  0  0
  -11.3070    0.1540   74.3110 N   0  0  0  0  0  0  0  0  0  0  0  0
   -9.5600   -0.7100   72.0450 C   0  0  0  0  0  0  0  0  0  0  0  0
   -7.9570    1.8250   71.6860 C   0  0  0  0  0  0  0  0  0  0  0  0
   -7.1750    2.8250   70.8230 C   0  0  0  0  0  0  0  0  0  0  0  0
   -7.0020    2.3160   69.3830 C   0  0  0  0  0  0  0  0  0  0  0  0
   -7.0850    5.3480   70.7890 C   0  0  0  0  0  0  0  0  0  0  0  0
   -7.7030    6.6020   70.7460 C   0  0  0  0  0  0  0  0  0  0  0  0
   -6.9090    7.6780   70.8670 F   0  0  0  0  0  0  0  0  0  0  0  0
   -5.3210   19.6490   67.1210 C   0  0  0  0  0  0  0  0  0  0  0  0
   -4.7900   20.0610   65.8640 C   0  0  0  0  0  0  0  0  0  0  0  0
   -3.5230   20.7260   65.6340 C   0  0  0  0  0  0  0  0  0  0  0  0
   -2.7520   21.0950   64.3400 C   0  0  0  0  0  0  0  0  0  0  0  0
   -2.9260   21.1030   66.8590 N   0  0  0  0  0  0  0  0  0  0  0  0
   -1.5840   21.8790   64.4700 C   0  0  0  0  0  0  0  0  0  0  0  0
   -0.7690   22.3260   63.4060 N   0  0  0  0  0  0  0  0  0  0  0  0
   -1.1740   22.1810   65.7650 C   0  0  0  0  0  0  0  0  0  0  0  0
   -1.8080   21.8140   66.8770 N   0  0  0  0  0  0  0  0  0  0  0  0
   -3.4270   20.7310   68.1010 N   0  0  0  0  0  0  0  0  0  0  0  0
   -4.4990   19.9010   68.2430 C   0  0  0  0  0  0  0  0  0  0  0  0
   -2.6680   21.3850   69.5130 Cl  0  0  0  0  0  0  0  0  0  0  0  0
   -4.7050   19.2230   69.5790 C   0  0  0  0  0  0  0  0  0  0  0  0
   -3.1800   20.6140   62.8050 N   0  0  0  0  0  0  0  0  0  0  0  0
   -3.7960   21.4400   61.8470 N   0  0  0  0  0  0  0  0  0  0  0  0
   -3.8410   23.1510   62.0320 Cl  0  0  0  0  0  0  0  0  0  0  0  0
   -4.2200   20.9790   60.5990 C   0  0  0  0  0  0  0  0  0  0  0  0
   -3.9790   19.6770   60.0820 C   0  0  0  0  0  0  0  0  0  0  0  0
   -3.2750   18.8560   60.9440 C   0  0  0  0  0  0  0  0  0  0  0  0
   -4.3710   19.1570   58.8000 N   0  0  0  0  0  0  0  0  0  0  0  0
   -2.9100   19.3050   62.3190 C   0  0  0  0  0  0  0  0  0  0  0  0
   -2.9720   17.6370   60.4760 N   0  0  0  0  0  0  0  0  0  0  0  0
   -2.2380   18.3560   63.1030 N   0  0  0  0  0  0  0  0  0  0  0  0
   -3.3180   17.1190   59.2720 N   0  0  0  0  0  0  0  0  0  0  0  0
   -4.0760   17.8350   58.3720 C   0  0  0  0  0  0  0  0  0  0  0  0
   -2.6830   15.5510   58.9980 Cl  0  0  0  0  0  0  0  0  0  0  0  0
   -4.5780   17.4340   57.1470 N   0  0  0  0  0  0  0  0  0  0  0  0
   -5.2720   18.2750   56.3450 C   0  0  0  0  0  0  0  0  0  0  0  0
   -4.4610   15.8350   56.5280 Cl  0  0  0  0  0  0  0  0  0  0  0  0
   -5.5050   19.5380   56.7330 N   0  0  0  0  0  0  0  0  0  0  0  0
   -5.0740   19.9670   57.9440 N   0  0  0  0  0  0  0  0  0  0  0  0
   -6.2580   20.4750   55.8230 C   0  0  0  0  0  0  0  0  0  0  0  0
  1  2  1  0  0  0  0
  2  3  1  0  0  0  0
  2  7  1  0  0  0  0
  3  4  1  0  0  0  0
  3 20  1  0  0  0  0
  4  5  1  0  0  0  0
  5  6  2  0  0  0  0
  5 12  1  0  0  0  0
  6  7  1  0  0  0  0
  6  9  1  0  0  0  0
  7  8  1  0  0  0  0
  9 10  2  0  0  0  0
 10 11  1  0  0  0  0
 10 18  1  0  0  0  0
 11 12  2  0  0  0  0
 11 14  1  0  0  0  0
 12 13  1  0  0  0  0
 14 15  1  0  0  0  0
 14 16  2  0  0  0  0
 16 17  1  0  0  0  0
 17 18  2  0  0  0  0
 17 56  1  0  0  0  0
 18 19  1  0  0  0  0
 20 21  1  0  0  0  0
 20 26  1  0  0  0  0
 21 22  1  0  0  0  0
 22 23  1  0  0  0  0
 23 24  2  0  0  0  0
 23 25  1  0  0  0  0
 24 26  1  0  0  0  0
 24 27  1  0  0  0  0
 25 37  2  0  0  0  0
 26 28  1  0  0  0  0
 27 31  1  0  0  0  0
 27 35  2  0  0  0  0
 28 29  1  0  0  0  0
 28 30  1  0  0  0  0
 30 31  1  0  0  0  0
 31 32  1  0  0  0  0
 32 33  1  0  0  0  0
 33 34  1  0  0  0  0
 34 35  1  0  0  0  0
 34 36  1  0  0  0  0
 35 37  1  0  0  0  0
 37 38  1  0  0  0  0
 38 39  2  0  0  0  0
 38 54  1  0  0  0  0
 39 40  1  0  0  0  0
 40 41  1  0  0  0  0
 40 42  2  0  0  0  0
 41 43  1  0  0  0  0
 41 44  1  0  0  0  0
 42 51  1  0  0  0  0
 42 53  1  0  0  0  0
 43 45  1  0  0  0  0
 44 47  1  0  0  0  0
 44 50  1  0  0  0  0
 45 46  1  0  0  0  0
 46 47  1  0  0  0  0
 46 48  1  0  0  0  0
 47 49  1  0  0  0  0
 50 51  1  0  0  0  0
 51 52  1  0  0  0  0
 53 54  2  0  0  0  0
 54 55  1  0  0  0  0
 56 57  2  0  0  0  0
 56 66  1  0  0  0  0
 57 58  1  0  0  0  0
 58 59  2  0  0  0  0
 58 60  1  0  0  0  0
 59 61  1  0  0  0  0
 59 69  1  0  0  0  0
 60 64  2  0  0  0  0
 60 65  1  0  0  0  0
 61 62  1  0  0  0  0
 61 63  2  0  0  0  0
 63 64  1  0  0  0  0
 65 66  2  0  0  0  0
 65 67  1  0  0  0  0
 66 68  1  0  0  0  0
 69 70  2  0  0  0  0
 69 76  1  0  0  0  0
 70 71  1  0  0  0  0
 70 72  1  0  0  0  0
 72 73  2  0  0  0  0
 73 74  1  0  0  0  0
 73 75  1  0  0  0  0
 74 76  2  0  0  0  0
 74 77  1  0  0  0  0
 75 80  2  0  0  0  0
 75 86  1  0  0  0  0
 76 78  1  0  0  0  0
 77 79  2  0  0  0  0
 79 80  1  0  0  0  0
 79 81  1  0  0  0  0
 80 82  1  0  0  0  0
 82 83  2  0  0  0  0
 82 84  1  0  0  0  0
 83 85  1  0  0  0  0
 85 86  2  0  0  0  0
 85 87  1  0  0  0  0
M  CHG  8  60   1  65   1  69   1  70   1  79   1  75   1  85   1  82   1
M  END