
 OpenBabel04032119413D

 62 70  0  0  1  0  0  0  0  0999 V2000
   -9.9320   11.1290   66.3560 C   0  0  0  0  0  0  0  0  0  0  0  0
   -8.9050   11.7760   67.0480 C   0  0  0  0  0  0  0  0  0  0  0  0
   -8.9120   13.1650   67.1900 C   0  0  0  0  0  0  0  0  0  0  0  0
   -7.8010   13.7080   67.7630 O   0  0  0  0  0  0  0  0  0  0  0  0
   -7.6190   15.0790   67.7140 C   0  0  0  0  0  0  0  0  0  0  0  0
   -8.5270   15.9510   67.2450 C   0  0  0  0  0  0  0  0  0  0  0  0
   -9.8670   15.3900   66.8570 C   0  0  0  0  0  0  0  0  0  0  0  0
  -10.8390   16.0720   66.6110 O   0  0  0  0  0  0  0  0  0  0  0  0
   -9.9720   13.9280   66.7370 C   0  0  0  0  0  0  0  0  0  0  0  0
  -11.0560   13.2850   66.1340 C   0  0  0  0  0  0  0  0  0  0  0  0
  -11.0260   11.8940   65.9350 C   0  0  0  0  0  0  0  0  0  0  0  0
  -12.0730   11.3110   65.2610 O   0  0  0  0  0  0  0  0  0  0  0  0
  -12.1530   13.9480   65.6480 O   0  0  0  0  0  0  0  0  0  0  0  0
   -8.1430   17.3800   67.2000 C   0  0  0  0  0  0  0  0  0  0  0  0
   -8.8280   18.3540   66.4560 C   0  0  0  0  0  0  0  0  0  0  0  0
   -9.8420   18.0820   65.5800 O   0  0  0  0  0  0  0  0  0  0  0  0
   -8.4360   19.6860   66.4960 C   0  0  0  0  0  0  0  0  0  0  0  0
   -9.0760   20.6270   65.7380 O   0  0  0  0  0  0  0  0  0  0  0  0
   -7.3920   20.1040   67.3100 C   0  0  0  0  0  0  0  0  0  0  0  0
   -6.6560   19.1830   68.0600 C   0  0  0  0  0  0  0  0  0  0  0  0
   -6.9760   17.8000   67.9100 C   0  0  0  0  0  0  0  0  0  0  0  0
   -6.0910   16.8700   68.4690 O   0  0  0  0  0  0  0  0  0  0  0  0
   -6.2770   15.4920   68.2490 C   0  0  0  0  0  0  0  0  0  0  0  0
   -6.0730   14.7450   69.4600 O   0  0  0  0  0  0  0  0  0  0  0  0
   -4.7170   17.2530   68.5440 C   0  0  0  0  0  0  0  0  0  0  0  0
   -3.8890   16.1870   69.0250 O   0  0  0  0  0  0  0  0  0  0  0  0
   -4.5910   18.5600   69.2780 C   0  0  0  0  0  0  0  0  0  0  0  0
   -5.5680   19.5470   69.0050 C   0  0  0  0  0  0  0  0  0  0  0  0
   -5.5110   20.7640   69.7090 C   0  0  0  0  0  0  0  0  0  0  0  0
   -4.4960   20.9940   70.6360 C   0  0  0  0  0  0  0  0  0  0  0  0
   -3.5310   20.0290   70.8670 C   0  0  0  0  0  0  0  0  0  0  0  0
   -3.5700   18.8290   70.1850 C   0  0  0  0  0  0  0  0  0  0  0  0
   -2.6000   17.8940   70.4260 O   0  0  0  0  0  0  0  0  0  0  0  0
   -2.5320   20.2190   71.7760 O   0  0  0  0  0  0  0  0  0  0  0  0
   -4.4130   22.1480   71.3570 O   0  0  0  0  0  0  0  0  0  0  0  0
   -7.0730   21.4300   67.3080 O   0  0  0  0  0  0  0  0  0  0  0  0
   -9.9100    9.7870   66.0530 O   0  0  0  0  0  0  0  0  0  0  0  0
  -10.5550    8.9380   67.0100 C   0  0  0  0  0  0  0  0  0  0  0  0
  -10.3010    9.4890   68.3440 O   0  0  0  0  0  0  0  0  0  0  0  0
  -10.4900    8.4890   69.3480 C   0  0  0  0  0  0  0  0  0  0  0  0
   -9.3500    7.4660   69.2490 C   0  0  0  0  0  0  0  0  0  0  0  0
   -9.1040    6.9440   67.8200 C   0  0  0  0  0  0  0  0  0  0  0  0
   -8.1450    8.1260   69.7270 O   0  0  0  0  0  0  0  0  0  0  0  0
  -10.1570    7.4360   66.8220 C   0  0  0  0  0  0  0  0  0  0  0  0
   -7.7780    7.3310   67.4440 O   0  0  0  0  0  0  0  0  0  0  0  0
  -11.3440    6.6620   67.0740 O   0  0  0  0  0  0  0  0  0  0  0  0
  -10.5090    9.2290   70.7010 C   0  0  0  0  0  0  0  0  0  0  0  0
  -11.8000    9.7700   70.9690 O   0  0  0  0  0  0  0  0  0  0  0  0
  -12.9130    9.0000   70.4470 O   0  0  0  0  0  0  0  0  0  0  0  0
  -11.9530   11.1630   70.8260 C   0  0  0  0  0  0  0  0  0  0  0  0
  -13.0300   11.8010   71.6680 C   0  0  0  0  0  0  0  0  0  0  0  0
  -13.1330   13.3180   71.5580 C   0  0  0  0  0  0  0  0  0  0  0  0
  -14.1710   13.8410   72.1220 O   0  0  0  0  0  0  0  0  0  0  0  0
  -12.1640   13.9830   70.9120 O   0  0  0  0  0  0  0  0  0  0  0  0
  -14.2540   15.2040   72.2930 C   0  0  0  0  0  0  0  0  0  0  0  0
  -13.2070   15.4450   73.1830 O   0  0  0  0  0  0  0  0  0  0  0  0
  -13.7840   15.7190   71.1320 O   0  0  0  0  0  0  0  0  0  0  0  0
  -12.7710   15.1610   70.6100 C   0  0  0  0  0  0  0  0  0  0  0  0
  -12.1800   15.7610   69.5700 O   0  0  0  0  0  0  0  0  0  0  0  0
  -11.6620   13.2710   69.8250 C   0  0  0  0  0  0  0  0  0  0  0  0
  -11.2670   11.9780   70.0730 O   0  0  0  0  0  0  0  0  0  0  0  0
  -12.7090   13.0630   68.9000 O   0  0  0  0  0  0  0  0  0  0  0  0
  1 37  1  0  0  0  0
  1  2  2  0  0  0  0
  1 11  1  0  0  0  0
  2  3  1  0  0  0  0
  3  4  1  0  0  0  0
  3  9  2  0  0  0  0
  4  5  1  0  0  0  0
  5  6  2  0  0  0  0
  5 23  1  0  0  0  0
  6  7  1  0  0  0  0
  6 14  1  0  0  0  0
  7  8  2  0  0  0  0
  7  9  1  0  0  0  0
  9 10  1  0  0  0  0
 10 11  2  0  0  0  0
 10 13  1  0  0  0  0
 11 12  1  0  0  0  0
 14 15  2  0  0  0  0
 14 21  1  0  0  0  0
 15 16  1  0  0  0  0
 15 17  1  0  0  0  0
 17 18  1  0  0  0  0
 17 19  2  0  0  0  0
 19 20  1  0  0  0  0
 19 36  1  0  0  0  0
 20 21  2  0  0  0  0
 20 28  1  0  0  0  0
 21 22  1  0  0  0  0
 22 23  1  0  0  0  0
 22 25  1  0  0  0  0
 23 24  1  0  0  0  0
 25 26  1  0  0  0  0
 25 27  1  0  0  0  0
 27 28  2  0  0  0  0
 27 32  1  0  0  0  0
 28 29  1  0  0  0  0
 29 30  2  0  0  0  0
 30 31  1  0  0  0  0
 30 35  1  0  0  0  0
 31 32  2  0  0  0  0
 31 34  1  0  0  0  0
 32 33  1  0  0  0  0
 37 38  1  0  0  0  0
 38 39  1  0  0  0  0
 38 44  1  0  0  0  0
 39 40  1  0  0  0  0
 40 47  1  0  0  0  0
 40 41  1  0  0  0  0
 41 42  1  0  0  0  0
 41 43  1  0  0  0  0
 42 44  1  0  0  0  0
 42 45  1  0  0  0  0
 44 46  1  0  0  0  0
 47 48  1  0  0  0  0
 48 50  1  0  0  0  0
 48 49  1  0  0  0  0
 50 51  1  0  0  0  0
 50 61  2  0  0  0  0
 51 52  1  0  0  0  0
 52 53  2  0  0  0  0
 52 54  1  0  0  0  0
 53 55  1  0  0  0  0
 54 60  1  0  0  0  0
 54 58  1  0  0  0  0
 55 56  1  0  0  0  0
 55 57  1  0  0  0  0
 57 58  2  0  0  0  0
 58 59  1  0  0  0  0
 60 61  1  0  0  0  0
 60 62  1  0  0  0  0
M  CHG  6  53   1  61   1  54   1  57   1  48   1  22   1
M  END