
 OpenBabel11242013473D

 93108  0  0  1  0  0  0  0  0999 V2000
  -10.6010   13.9260   69.0650 C   0  0  0  0  0  0  0  0  0  0  0  0
   -9.1650   13.6680   68.9550 O   0  0  0  0  0  0  0  0  0  0  0  0
   -8.3670   14.7320   68.6390 C   0  0  0  0  0  0  0  0  0  0  0  0
   -8.7890   15.6620   67.6990 C   0  0  0  0  0  0  0  0  0  0  0  0
  -10.1160   15.4090   67.0420 C   0  0  0  0  0  0  0  0  0  0  0  0
  -11.1930   14.9550   68.0550 C   0  0  0  0  0  0  0  0  0  0  0  0
  -10.4860   16.5440   66.2650 O   0  0  0  0  0  0  0  0  0  0  0  0
   -7.9240   16.7130   67.3420 C   0  0  0  0  0  0  0  0  0  0  0  0
   -6.6600   16.9280   67.9390 C   0  0  0  0  0  0  0  0  0  0  0  0
   -6.2090   15.9360   68.8570 C   0  0  0  0  0  0  0  0  0  0  0  0
   -7.0800   14.8540   69.1560 C   0  0  0  0  0  0  0  0  0  0  0  0
   -6.6270   13.9230   70.0290 F   0  0  0  0  0  0  0  0  0  0  0  0
   -4.9310   16.1220   69.4130 C   0  0  0  0  0  0  0  0  0  0  0  0
   -4.3720   15.2350   70.3090 O   0  0  0  0  0  0  0  0  0  0  0  0
   -4.1160   17.2300   69.1300 C   0  0  0  0  0  0  0  0  0  0  0  0
   -4.5240   18.2540   68.2560 C   0  0  0  0  0  0  0  0  0  0  0  0
   -5.8120   18.0590   67.6960 C   0  0  0  0  0  0  0  0  0  0  0  0
   -6.2590   19.0770   66.8750 O   0  0  0  0  0  0  0  0  0  0  0  0
  -11.3660   12.5440   69.0330 C   0  0  0  0  0  0  0  0  0  0  0  0
  -10.4500   11.4430   68.4190 C   0  0  0  0  0  0  0  0  0  0  0  0
  -10.5680   11.2970   66.8880 C   0  0  0  0  0  0  0  0  0  0  0  0
  -10.4830   10.0690   69.0650 C   0  0  0  0  0  0  0  0  0  0  0  0
  -11.8750   11.2970   66.5120 F   0  0  0  0  0  0  0  0  0  0  0  0
   -9.8970   10.0270   66.3370 C   0  0  0  0  0  0  0  0  0  0  0  0
   -8.8310    9.4730   67.3090 C   0  0  0  0  0  0  0  0  0  0  0  0
   -8.0120    8.3530   66.6510 C   0  0  0  0  0  0  0  0  0  0  0  0
   -9.5560    9.1160   68.6060 C   0  0  0  0  0  0  0  0  0  0  0  0
   -8.1960    6.9870   67.2980 C   0  0  0  0  0  0  0  0  0  0  0  0
   -8.1580    7.0910   68.8230 C   0  0  0  0  0  0  0  0  0  0  0  0
   -9.3550    7.8870   69.3000 C   0  0  0  0  0  0  0  0  0  0  0  0
   -6.9730    7.7900   69.2340 O   0  0  0  0  0  0  0  0  0  0  0  0
  -10.2140    7.5250   70.3800 C   0  0  0  0  0  0  0  0  0  0  0  0
  -11.2210    8.4740   70.7130 C   0  0  0  0  0  0  0  0  0  0  0  0
  -11.3340    9.7390   70.1040 C   0  0  0  0  0  0  0  0  0  0  0  0
  -12.3990   10.7090   70.5070 C   0  0  0  0  0  0  0  0  0  0  0  0
  -11.8620   12.1330   70.4400 C   0  0  0  0  0  0  0  0  0  0  0  0
  -10.1560    6.2450   71.1870 C   0  0  0  0  0  0  0  0  0  0  0  0
   -9.9560    6.2640   72.5930 C   0  0  0  0  0  0  0  0  0  0  0  0
   -9.9350    5.0940   73.4060 C   0  0  0  0  0  0  0  0  0  0  0  0
   -9.8530    5.2300   74.9270 C   0  0  0  0  0  0  0  0  0  0  0  0
  -10.0090    3.8380   72.7890 C   0  0  0  0  0  0  0  0  0  0  0  0
   -8.4760    5.7780   75.3440 C   0  0  0  0  0  0  0  0  0  0  0  0
  -10.2190    3.9130   75.6730 C   0  0  0  0  0  0  0  0  0  0  0  0
   -8.3270    5.8840   76.8560 C   0  0  0  0  0  0  0  0  0  0  0  0
   -8.5900    4.5510   77.5460 C   0  0  0  0  0  0  0  0  0  0  0  0
   -9.9930    4.0260   77.2050 C   0  0  0  0  0  0  0  0  0  0  0  0
   -8.4540    4.7310   78.9550 O   0  0  0  0  0  0  0  0  0  0  0  0
  -10.2910    2.7200   77.9550 C   0  0  0  0  0  0  0  0  0  0  0  0
   -9.4820    2.7330   75.0190 C   0  0  0  0  0  0  0  0  0  0  0  0
   -9.9370    2.5340   73.5630 C   0  0  0  0  0  0  0  0  0  0  0  0
  -11.2760    1.7800   73.5090 C   0  0  0  0  0  0  0  0  0  0  0  0
  -10.2060    3.7960   71.4040 C   0  0  0  0  0  0  0  0  0  0  0  0
  -10.3520    4.9670   70.6500 C   0  0  0  0  0  0  0  0  0  0  0  0
  -10.7500    4.8050   69.3790 F   0  0  0  0  0  0  0  0  0  0  0  0
  -11.7770   16.0530   68.8280 O   0  0  0  0  0  0  0  0  0  0  0  0
  -12.2620   15.7550   70.0920 C   0  0  0  0  0  0  0  0  0  0  0  0
  -13.5230   15.1940   70.3050 C   0  0  0  0  0  0  0  0  0  0  0  0
  -14.0130   14.9800   71.5990 C   0  0  0  0  0  0  0  0  0  0  0  0
  -13.2740   15.3720   72.7090 C   0  0  0  0  0  0  0  0  0  0  0  0
  -12.0120   15.9320   72.5220 C   0  0  0  0  0  0  0  0  0  0  0  0
  -11.5000   16.1050   71.2200 C   0  0  0  0  0  0  0  0  0  0  0  0
   -3.6050   19.4330   67.9670 C   0  0  0  0  0  0  0  0  0  0  0  0
   -3.2900   19.7610   66.6120 C   0  0  0  0  0  0  0  0  0  0  0  0
   -2.5900   20.9580   66.1790 C   0  0  0  0  0  0  0  0  0  0  0  0
   -2.2670   21.5100   64.7960 C   0  0  0  0  0  0  0  0  0  0  0  0
   -2.1250   21.7210   67.2710 N   0  0  0  0  0  0  0  0  0  0  0  0
   -1.5390   22.7160   64.6910 C   0  0  0  0  0  0  0  0  0  0  0  0
   -1.3560   23.4170   63.4590 N   0  0  0  0  0  0  0  0  0  0  0  0
   -1.1810   23.3360   65.8840 C   0  0  0  0  0  0  0  0  0  0  0  0
   -1.4480   22.8510   67.1010 N   0  0  0  0  0  0  0  0  0  0  0  0
   -2.3390   21.3720   68.5640 N   0  0  0  0  0  0  0  0  0  0  0  0
   -3.0670   20.2960   68.9420 C   0  0  0  0  0  0  0  0  0  0  0  0
   -1.8690   22.1450   69.6440 O   0  0  0  0  0  0  0  0  0  0  0  0
   -3.2850   20.1910   70.2760 O   0  0  0  0  0  0  0  0  0  0  0  0
   -2.6560   20.8450   63.3910 N   0  0  0  0  0  0  0  0  0  0  0  0
   -1.7680   19.9680   62.7210 N   0  0  0  0  0  0  0  0  0  0  0  0
   -0.7100   19.3240   63.3660 O   0  0  0  0  0  0  0  0  0  0  0  0
   -1.9960   19.4550   61.4630 C   0  0  0  0  0  0  0  0  0  0  0  0
   -3.1940   19.6340   60.7420 C   0  0  0  0  0  0  0  0  0  0  0  0
   -4.1660   20.3760   61.4180 C   0  0  0  0  0  0  0  0  0  0  0  0
   -3.4850   19.1430   59.4340 N   0  0  0  0  0  0  0  0  0  0  0  0
   -3.8450   21.0840   62.7030 C   0  0  0  0  0  0  0  0  0  0  0  0
   -5.3780   20.4580   60.8270 N   0  0  0  0  0  0  0  0  0  0  0  0
   -4.7140   22.1260   63.0280 N   0  0  0  0  0  0  0  0  0  0  0  0
   -5.6920   19.8750   59.6550 N   0  0  0  0  0  0  0  0  0  0  0  0
   -4.7610   19.2340   58.8760 C   0  0  0  0  0  0  0  0  0  0  0  0
   -7.0000   19.9570   59.1920 O   0  0  0  0  0  0  0  0  0  0  0  0
   -4.9720   18.7090   57.6230 N   0  0  0  0  0  0  0  0  0  0  0  0
   -3.9750   18.2010   56.8720 C   0  0  0  0  0  0  0  0  0  0  0  0
   -6.2750   18.7350   57.1010 O   0  0  0  0  0  0  0  0  0  0  0  0
   -2.7240   18.1860   57.3710 N   0  0  0  0  0  0  0  0  0  0  0  0
   -2.4890   18.6090   58.6500 N   0  0  0  0  0  0  0  0  0  0  0  0
   -1.5790   17.7250   56.5060 C   0  0  0  0  0  0  0  0  0  0  0  0
  1 19  1  0  0  0  0
  1  2  1  0  0  0  0
  1  6  1  0  0  0  0
  2  3  1  0  0  0  0
  3  4  2  0  0  0  0
  3 11  1  0  0  0  0
  4  5  1  0  0  0  0
  4  8  1  0  0  0  0
  5  6  1  0  0  0  0
  5  7  1  0  0  0  0
  6 55  1  0  0  0  0
  8  9  2  0  0  0  0
  9 10  1  0  0  0  0
  9 17  1  0  0  0  0
 10 11  2  0  0  0  0
 10 13  1  0  0  0  0
 11 12  1  0  0  0  0
 13 14  1  0  0  0  0
 13 15  2  0  0  0  0
 15 16  1  0  0  0  0
 16 17  2  0  0  0  0
 16 62  1  0  0  0  0
 17 18  1  0  0  0  0
 19 20  1  0  0  0  0
 19 36  1  0  0  0  0
 20 21  1  0  0  0  0
 20 22  1  0  0  0  0
 21 23  1  0  0  0  0
 21 24  1  0  0  0  0
 22 27  1  0  0  0  0
 22 34  2  0  0  0  0
 24 25  1  0  0  0  0
 25 26  1  0  0  0  0
 25 27  1  0  0  0  0
 26 28  1  0  0  0  0
 27 30  2  0  0  0  0
 28 29  1  0  0  0  0
 29 30  1  0  0  0  0
 29 31  1  0  0  0  0
 30 32  1  0  0  0  0
 32 33  2  0  0  0  0
 32 37  1  0  0  0  0
 33 34  1  0  0  0  0
 34 35  1  0  0  0  0
 35 36  1  0  0  0  0
 37 38  2  0  0  0  0
 37 53  1  0  0  0  0
 38 39  1  0  0  0  0
 39 40  1  0  0  0  0
 39 41  2  0  0  0  0
 40 42  1  0  0  0  0
 40 43  1  0  0  0  0
 41 50  1  0  0  0  0
 41 52  1  0  0  0  0
 42 44  1  0  0  0  0
 43 46  1  0  0  0  0
 43 49  1  0  0  0  0
 44 45  1  0  0  0  0
 45 46  1  0  0  0  0
 45 47  1  0  0  0  0
 46 48  1  0  0  0  0
 49 50  1  0  0  0  0
 50 51  1  0  0  0  0
 52 53  2  0  0  0  0
 53 54  1  0  0  0  0
 55 56  1  0  0  0  0
 56 57  2  0  0  0  0
 56 61  1  0  0  0  0
 57 58  1  0  0  0  0
 58 59  2  0  0  0  0
 59 60  1  0  0  0  0
 60 61  2  0  0  0  0
 62 63  2  0  0  0  0
 62 72  1  0  0  0  0
 63 64  1  0  0  0  0
 64 65  2  0  0  0  0
 64 66  1  0  0  0  0
 65 67  1  0  0  0  0
 65 75  1  0  0  0  0
 66 70  2  0  0  0  0
 66 71  1  0  0  0  0
 67 68  1  0  0  0  0
 67 69  2  0  0  0  0
 69 70  1  0  0  0  0
 71 72  2  0  0  0  0
 71 73  1  0  0  0  0
 72 74  1  0  0  0  0
 75 76  2  0  0  0  0
 75 82  1  0  0  0  0
 76 77  1  0  0  0  0
 76 78  1  0  0  0  0
 78 79  2  0  0  0  0
 79 80  1  0  0  0  0
 79 81  1  0  0  0  0
 80 82  2  0  0  0  0
 80 83  1  0  0  0  0
 81 86  2  0  0  0  0
 81 92  1  0  0  0  0
 82 84  1  0  0  0  0
 83 85  2  0  0  0  0
 85 86  1  0  0  0  0
 85 87  1  0  0  0  0
 86 88  1  0  0  0  0
 88 89  2  0  0  0  0
 88 90  1  0  0  0  0
 89 91  1  0  0  0  0
 91 92  2  0  0  0  0
 91 93  1  0  0  0  0
M  CHG  8  66   1  71   1  75   1  76   1  85   1  81   1  91   1  88   1
M  END