
 OpenBabel10232008493D

 69 80  0  0  1  0  0  0  0  0999 V2000
  -12.0340   14.8260   65.7850 O   0  0  0  0  0  0  0  0  0  0  0  0
  -10.7630   14.7800   66.4330 C   0  0  0  0  0  0  0  0  0  0  0  0
  -10.8490   14.9090   67.9630 C   0  0  0  0  0  0  0  0  0  0  0  0
   -9.5320   15.0080   68.5490 O   0  0  0  0  0  0  0  0  0  0  0  0
   -8.6800   15.9230   67.9970 C   0  0  0  0  0  0  0  0  0  0  0  0
   -8.7630   16.3030   66.6650 C   0  0  0  0  0  0  0  0  0  0  0  0
   -9.9270   15.9060   65.8200 C   0  0  0  0  0  0  0  0  0  0  0  0
  -10.7070   17.0810   65.5640 O   0  0  0  0  0  0  0  0  0  0  0  0
   -7.7270   17.0720   66.1200 C   0  0  0  0  0  0  0  0  0  0  0  0
   -6.6140   17.5290   66.8610 C   0  0  0  0  0  0  0  0  0  0  0  0
   -6.6290   17.3040   68.2620 C   0  0  0  0  0  0  0  0  0  0  0  0
   -7.6440   16.4430   68.7760 C   0  0  0  0  0  0  0  0  0  0  0  0
   -7.6060   16.0930   70.0750 F   0  0  0  0  0  0  0  0  0  0  0  0
   -5.6240   17.9540   69.0080 C   0  0  0  0  0  0  0  0  0  0  0  0
   -5.4990   17.8190   70.7270 Cl  0  0  0  0  0  0  0  0  0  0  0  0
   -4.6350   18.7640   68.4030 C   0  0  0  0  0  0  0  0  0  0  0  0
   -4.4580   18.8360   67.0100 C   0  0  0  0  0  0  0  0  0  0  0  0
   -5.4810   18.1840   66.2710 C   0  0  0  0  0  0  0  0  0  0  0  0
   -5.3140   18.0000   64.5380 Cl  0  0  0  0  0  0  0  0  0  0  0  0
   -3.2310   19.5390   66.4330 C   0  0  0  0  0  0  0  0  0  0  0  0
   -3.2090   20.0190   65.0840 C   0  0  0  0  0  0  0  0  0  0  0  0
   -2.0360   20.5680   64.3930 C   0  0  0  0  0  0  0  0  0  0  0  0
   -1.6830   20.9000   62.9030 C   0  0  0  0  0  0  0  0  0  0  0  0
   -1.0220   20.8860   65.3330 N   0  0  0  0  0  0  0  0  0  0  0  0
   -0.3970   21.3860   62.6100 C   0  0  0  0  0  0  0  0  0  0  0  0
    0.1840   21.2710   61.3210 N   0  0  0  0  0  0  0  0  0  0  0  0
    0.4040   21.7330   63.6870 C   0  0  0  0  0  0  0  0  0  0  0  0
    0.0770   21.5340   64.9610 N   0  0  0  0  0  0  0  0  0  0  0  0
   -1.0830   20.5550   66.6760 N   0  0  0  0  0  0  0  0  0  0  0  0
   -2.0490   19.7510   67.1910 C   0  0  0  0  0  0  0  0  0  0  0  0
    0.1260   21.2080   67.7350 Cl  0  0  0  0  0  0  0  0  0  0  0  0
   -1.7720   19.1150   68.5400 C   0  0  0  0  0  0  0  0  0  0  0  0
   -2.6350   20.7160   61.5670 N   0  0  0  0  0  0  0  0  0  0  0  0
   -3.0940   21.8080   60.7600 N   0  0  0  0  0  0  0  0  0  0  0  0
   -3.0750   23.4460   61.3170 Cl  0  0  0  0  0  0  0  0  0  0  0  0
   -3.8100   21.6240   59.5740 C   0  0  0  0  0  0  0  0  0  0  0  0
   -4.2480   20.3690   59.0710 C   0  0  0  0  0  0  0  0  0  0  0  0
   -3.8450   19.2900   59.8470 C   0  0  0  0  0  0  0  0  0  0  0  0
   -5.0540   20.1180   57.8940 N   0  0  0  0  0  0  0  0  0  0  0  0
   -3.0010   19.4690   61.0710 C   0  0  0  0  0  0  0  0  0  0  0  0
   -4.2550   18.0860   59.4300 N   0  0  0  0  0  0  0  0  0  0  0  0
   -2.5010   18.3320   61.7030 N   0  0  0  0  0  0  0  0  0  0  0  0
   -5.0370   17.8180   58.3530 N   0  0  0  0  0  0  0  0  0  0  0  0
   -5.4910   18.8180   57.5190 C   0  0  0  0  0  0  0  0  0  0  0  0
   -5.3390   16.1450   58.1410 Cl  0  0  0  0  0  0  0  0  0  0  0  0
   -6.2990   18.7090   56.3980 N   0  0  0  0  0  0  0  0  0  0  0  0
   -6.6240   19.7790   55.6400 C   0  0  0  0  0  0  0  0  0  0  0  0
   -7.0080   17.2430   55.8470 Cl  0  0  0  0  0  0  0  0  0  0  0  0
   -6.1780   21.0000   55.9660 N   0  0  0  0  0  0  0  0  0  0  0  0
   -5.4220   21.1730   57.0870 N   0  0  0  0  0  0  0  0  0  0  0  0
   -6.5330   22.1750   55.0850 C   0  0  0  0  0  0  0  0  0  0  0  0
  -11.6650   13.7760   68.6960 C   0  0  0  0  0  0  0  0  0  0  0  0
  -12.1410   14.3360   70.0580 C   0  0  0  0  0  0  0  0  0  0  0  0
  -13.1220   13.4000   70.7490 C   0  0  0  0  0  0  0  0  0  0  0  0
  -12.6000   11.9970   70.8530 C   0  0  0  0  0  0  0  0  0  0  0  0
  -11.6210   11.5050   69.9820 C   0  0  0  0  0  0  0  0  0  0  0  0
  -13.1710   11.1370   71.7980 C   0  0  0  0  0  0  0  0  0  0  0  0
  -10.9430   12.4000   68.9400 C   0  0  0  0  0  0  0  0  0  0  0  0
  -11.2280   10.1400   70.0780 C   0  0  0  0  0  0  0  0  0  0  0  0
  -10.6850   11.5880   67.6370 C   0  0  0  0  0  0  0  0  0  0  0  0
  -11.5800   11.9440   66.6720 F   0  0  0  0  0  0  0  0  0  0  0  0
  -10.6720   10.0630   67.7370 C   0  0  0  0  0  0  0  0  0  0  0  0
  -10.1630    9.6560   69.1130 C   0  0  0  0  0  0  0  0  0  0  0  0
   -9.8150    8.1690   69.2080 C   0  0  0  0  0  0  0  0  0  0  0  0
  -11.0170    7.3210   69.5820 C   0  0  0  0  0  0  0  0  0  0  0  0
  -11.5690    7.7650   70.9410 C   0  0  0  0  0  0  0  0  0  0  0  0
  -11.8800    9.2540   70.9610 C   0  0  0  0  0  0  0  0  0  0  0  0
  -13.0040    6.7500   71.2840 Cl  0  0  0  0  0  0  0  0  0  0  0  0
  -12.8090    9.7920   71.8590 C   0  0  0  0  0  0  0  0  0  0  0  0
  1  2  1  0  0  0  0
  2  3  1  0  0  0  0
  2  7  1  0  0  0  0
  3  4  1  0  0  0  0
  3 52  1  0  0  0  0
  4  5  1  0  0  0  0
  5  6  2  0  0  0  0
  5 12  1  0  0  0  0
  6  7  1  0  0  0  0
  6  9  1  0  0  0  0
  7  8  1  0  0  0  0
  9 10  2  0  0  0  0
 10 11  1  0  0  0  0
 10 18  1  0  0  0  0
 11 12  2  0  0  0  0
 11 14  1  0  0  0  0
 12 13  1  0  0  0  0
 14 15  1  0  0  0  0
 14 16  2  0  0  0  0
 16 17  1  0  0  0  0
 17 18  2  0  0  0  0
 17 20  1  0  0  0  0
 18 19  1  0  0  0  0
 20 21  2  0  0  0  0
 20 30  1  0  0  0  0
 21 22  1  0  0  0  0
 22 23  2  0  0  0  0
 22 24  1  0  0  0  0
 23 25  1  0  0  0  0
 23 33  1  0  0  0  0
 24 28  2  0  0  0  0
 24 29  1  0  0  0  0
 25 26  1  0  0  0  0
 25 27  2  0  0  0  0
 27 28  1  0  0  0  0
 29 30  2  0  0  0  0
 29 31  1  0  0  0  0
 30 32  1  0  0  0  0
 33 34  2  0  0  0  0
 33 40  1  0  0  0  0
 34 35  1  0  0  0  0
 34 36  1  0  0  0  0
 36 37  2  0  0  0  0
 37 38  1  0  0  0  0
 37 39  1  0  0  0  0
 38 40  2  0  0  0  0
 38 41  1  0  0  0  0
 39 44  2  0  0  0  0
 39 50  1  0  0  0  0
 40 42  1  0  0  0  0
 41 43  2  0  0  0  0
 43 44  1  0  0  0  0
 43 45  1  0  0  0  0
 44 46  1  0  0  0  0
 46 47  2  0  0  0  0
 46 48  1  0  0  0  0
 47 49  1  0  0  0  0
 49 50  2  0  0  0  0
 49 51  1  0  0  0  0
 52 53  1  0  0  0  0
 52 58  1  0  0  0  0
 53 54  1  0  0  0  0
 54 55  1  0  0  0  0
 55 56  2  0  0  0  0
 55 57  1  0  0  0  0
 56 58  1  0  0  0  0
 56 59  1  0  0  0  0
 57 69  2  0  0  0  0
 58 60  1  0  0  0  0
 59 63  1  0  0  0  0
 59 67  2  0  0  0  0
 60 61  1  0  0  0  0
 60 62  1  0  0  0  0
 62 63  1  0  0  0  0
 63 64  1  0  0  0  0
 64 65  1  0  0  0  0
 65 66  1  0  0  0  0
 66 67  1  0  0  0  0
 66 68  1  0  0  0  0
 67 69  1  0  0  0  0
M  CHG  8  24   1  29   1  33   1  34   1  43   1  39   1  49   1  46   1
M  END