
 OpenBabel10262010433D

 52 60  0  0  1  0  0  0  0  0999 V2000
  -12.3520   10.1670   70.2680 O   0  0  0  0  0  0  0  0  0  0  0  0
  -12.5020   11.3380   70.5900 C   0  0  0  0  0  0  0  0  0  0  0  0
  -13.3490   11.6360   71.6350 N   0  0  0  0  0  0  0  0  0  0  0  0
  -13.4150   12.8530   72.0580 C   0  0  0  0  0  0  0  0  0  0  0  0
  -12.6410   13.9490   71.4640 C   0  0  0  0  0  0  0  0  0  0  0  0
  -11.8570   13.5290   70.2700 C   0  0  0  0  0  0  0  0  0  0  0  0
  -11.8180   12.3000   69.8730 N   0  0  0  0  0  0  0  0  0  0  0  0
  -11.1150   14.5760   69.5040 C   0  0  0  0  0  0  0  0  0  0  0  0
  -10.4660   14.2180   68.2060 C   0  0  0  0  0  0  0  0  0  0  0  0
   -9.8030   15.4010   67.5220 C   0  0  0  0  0  0  0  0  0  0  0  0
   -9.7850   16.6070   68.1390 C   0  0  0  0  0  0  0  0  0  0  0  0
  -10.4190   16.8440   69.3620 O   0  0  0  0  0  0  0  0  0  0  0  0
  -11.0990   15.8220   69.9980 C   0  0  0  0  0  0  0  0  0  0  0  0
  -11.7740   16.1400   71.1450 N   0  0  0  0  0  0  0  0  0  0  0  0
  -12.5770   15.2420   71.8340 C   0  0  0  0  0  0  0  0  0  0  0  0
   -9.1820   17.8470   67.6020 C   0  0  0  0  0  0  0  0  0  0  0  0
   -9.9610   18.4830   66.7000 N   0  0  0  0  0  0  0  0  0  0  0  0
   -9.5440   19.6910   66.3080 C   0  0  0  0  0  0  0  0  0  0  0  0
   -8.4730   20.3440   66.7690 N   0  0  0  0  0  0  0  0  0  0  0  0
   -7.6880   19.6890   67.6210 C   0  0  0  0  0  0  0  0  0  0  0  0
   -7.9680   18.3880   68.0730 C   0  0  0  0  0  0  0  0  0  0  0  0
   -6.5160   20.3180   68.0200 C   0  0  0  0  0  0  0  0  0  0  0  0
   -7.0150   17.7290   68.8860 C   0  0  0  0  0  0  0  0  0  0  0  0
   -5.7780   18.3350   69.1400 C   0  0  0  0  0  0  0  0  0  0  0  0
   -5.5390   19.6420   68.7440 C   0  0  0  0  0  0  0  0  0  0  0  0
   -4.6710   17.5470   69.6910 C   0  0  0  0  0  0  0  0  0  0  0  0
   -4.3640   20.3120   68.9200 O   0  0  0  0  0  0  0  0  0  0  0  0
   -3.4450   19.7670   69.8660 C   0  0  0  0  0  0  0  0  0  0  0  0
   -3.3530   18.2610   69.8850 C   0  0  0  0  0  0  0  0  0  0  0  0
   -2.3370   17.6460   70.1760 O   0  0  0  0  0  0  0  0  0  0  0  0
   -4.7940   16.3640   69.9640 O   0  0  0  0  0  0  0  0  0  0  0  0
   -3.6960   20.3420   71.2260 C   0  0  0  0  0  0  0  0  0  0  0  0
   -4.3460   19.4660   72.1770 O   0  0  0  0  0  0  0  0  0  0  0  0
   -2.6400   21.1520   71.7510 O   0  0  0  0  0  0  0  0  0  0  0  0
   -3.8160   21.7740   71.5070 C   0  0  0  0  0  0  0  0  0  0  0  0
   -4.5500   22.3620   72.2640 O   0  0  0  0  0  0  0  0  0  0  0  0
   -9.1850   15.2090   66.2890 O   0  0  0  0  0  0  0  0  0  0  0  0
   -9.8340   14.3710   65.3010 C   0  0  0  0  0  0  0  0  0  0  0  0
  -10.0070   13.0390   65.7820 O   0  0  0  0  0  0  0  0  0  0  0  0
  -10.8580   12.2490   65.0200 C   0  0  0  0  0  0  0  0  0  0  0  0
  -12.2300   12.7520   64.7350 C   0  0  0  0  0  0  0  0  0  0  0  0
  -13.1720   12.0790   64.3550 O   0  0  0  0  0  0  0  0  0  0  0  0
  -12.3610   14.2390   64.9510 C   0  0  0  0  0  0  0  0  0  0  0  0
  -13.4570   14.7430   65.1440 O   0  0  0  0  0  0  0  0  0  0  0  0
  -11.1220   15.0980   64.9130 C   0  0  0  0  0  0  0  0  0  0  0  0
  -11.1870   16.2590   64.5270 O   0  0  0  0  0  0  0  0  0  0  0  0
  -10.4880   11.0050   64.6820 C   0  0  0  0  0  0  0  0  0  0  0  0
   -9.1390   10.6790   64.5600 O   0  0  0  0  0  0  0  0  0  0  0  0
   -9.9810   10.6990   63.4270 O   0  0  0  0  0  0  0  0  0  0  0  0
  -13.3650   15.7810   72.9830 C   0  0  0  0  0  0  0  0  0  0  0  0
  -12.9870   15.9780   74.1200 O   0  0  0  0  0  0  0  0  0  0  0  0
  -14.6340   16.0470   72.6060 O   0  0  0  0  0  0  0  0  0  0  0  0
  1  2  2  0  0  0  0
  2  3  1  0  0  0  0
  2  7  1  0  0  0  0
  3  4  2  0  0  0  0
  4  5  1  0  0  0  0
  5  6  1  0  0  0  0
  5 15  2  0  0  0  0
  6  7  2  0  0  0  0
  6  8  1  0  0  0  0
  8  9  1  0  0  0  0
  8 13  2  0  0  0  0
  9 10  1  0  0  0  0
 10 11  2  0  0  0  0
 10 37  1  0  0  0  0
 11 12  1  0  0  0  0
 11 16  1  0  0  0  0
 12 13  1  0  0  0  0
 13 14  1  0  0  0  0
 14 15  1  0  0  0  0
 15 50  1  0  0  0  0
 16 17  2  0  0  0  0
 16 21  1  0  0  0  0
 17 18  1  0  0  0  0
 18 19  2  0  0  0  0
 19 20  1  0  0  0  0
 20 21  2  0  0  0  0
 20 22  1  0  0  0  0
 21 23  1  0  0  0  0
 22 25  2  0  0  0  0
 23 24  2  0  0  0  0
 24 25  1  0  0  0  0
 24 26  1  0  0  0  0
 25 27  1  0  0  0  0
 26 29  1  0  0  0  0
 26 31  2  0  0  0  0
 27 28  1  0  0  0  0
 28 29  1  0  0  0  0
 28 32  1  0  0  0  0
 29 30  2  0  0  0  0
 32 33  1  0  0  0  0
 32 34  1  0  0  0  0
 32 35  1  0  0  0  0
 34 35  1  0  0  0  0
 35 36  2  0  0  0  0
 37 38  1  0  0  0  0
 38 39  1  0  0  0  0
 38 45  1  0  0  0  0
 39 40  1  0  0  0  0
 40 47  2  0  0  0  0
 40 41  1  0  0  0  0
 41 42  2  0  0  0  0
 41 43  1  0  0  0  0
 43 44  2  0  0  0  0
 43 45  1  0  0  0  0
 45 46  2  0  0  0  0
 47 48  1  0  0  0  0
 47 49  1  0  0  0  0
 48 49  1  0  0  0  0
 50 51  2  0  0  0  0
 50 52  1  0  0  0  0
M  END
