
 OpenBabel10192018293D

 51 59  0  0  1  0  0  0  0  0999 V2000
  -10.0270   15.8480   67.7460 C   0  0  0  0  0  0  0  0  0  0  0  0
  -10.0930   17.0340   68.3920 C   0  0  0  0  0  0  0  0  0  0  0  0
  -10.7410   17.2020   69.6170 O   0  0  0  0  0  0  0  0  0  0  0  0
  -11.3360   16.1060   70.2320 C   0  0  0  0  0  0  0  0  0  0  0  0
  -11.3180   14.8930   69.6680 C   0  0  0  0  0  0  0  0  0  0  0  0
  -10.6910   14.6310   68.3510 C   0  0  0  0  0  0  0  0  0  0  0  0
  -11.9730   13.7620   70.3790 C   0  0  0  0  0  0  0  0  0  0  0  0
  -11.9770   12.5770   69.8620 N   0  0  0  0  0  0  0  0  0  0  0  0
  -12.6070   11.5520   70.5300 C   0  0  0  0  0  0  0  0  0  0  0  0
  -12.6840   10.4660   69.9640 O   0  0  0  0  0  0  0  0  0  0  0  0
  -13.1540   11.6900   71.7900 N   0  0  0  0  0  0  0  0  0  0  0  0
  -13.1670   12.8620   72.3310 C   0  0  0  0  0  0  0  0  0  0  0  0
  -12.5990   14.0510   71.6880 C   0  0  0  0  0  0  0  0  0  0  0  0
  -12.5720   15.3100   72.1750 C   0  0  0  0  0  0  0  0  0  0  0  0
  -11.9440   16.3110   71.4430 N   0  0  0  0  0  0  0  0  0  0  0  0
   -9.4780   18.2740   67.8720 C   0  0  0  0  0  0  0  0  0  0  0  0
  -10.3210   19.0500   67.1560 N   0  0  0  0  0  0  0  0  0  0  0  0
   -9.8070   20.1890   66.6810 C   0  0  0  0  0  0  0  0  0  0  0  0
   -8.5440   20.6120   66.8340 N   0  0  0  0  0  0  0  0  0  0  0  0
   -7.7200   19.8290   67.5340 C   0  0  0  0  0  0  0  0  0  0  0  0
   -8.1290   18.6080   68.0920 C   0  0  0  0  0  0  0  0  0  0  0  0
   -6.4000   20.2440   67.7080 C   0  0  0  0  0  0  0  0  0  0  0  0
   -7.1810   17.8290   68.8010 C   0  0  0  0  0  0  0  0  0  0  0  0
   -5.8610   18.2710   68.9500 C   0  0  0  0  0  0  0  0  0  0  0  0
   -5.4650   19.4830   68.4170 C   0  0  0  0  0  0  0  0  0  0  0  0
   -4.8900   17.4330   69.6550 C   0  0  0  0  0  0  0  0  0  0  0  0
   -4.2050   19.9930   68.4870 O   0  0  0  0  0  0  0  0  0  0  0  0
   -3.2910   19.4140   69.4160 C   0  0  0  0  0  0  0  0  0  0  0  0
   -3.5130   17.9960   69.8860 C   0  0  0  0  0  0  0  0  0  0  0  0
   -2.6760   17.3670   70.5210 O   0  0  0  0  0  0  0  0  0  0  0  0
   -5.1830   16.3210   70.0650 O   0  0  0  0  0  0  0  0  0  0  0  0
   -3.0950   20.3510   70.5690 C   0  0  0  0  0  0  0  0  0  0  0  0
   -2.1410   19.9550   71.5090 F   0  0  0  0  0  0  0  0  0  0  0  0
   -3.0530   21.7380   70.1750 O   0  0  0  0  0  0  0  0  0  0  0  0
   -4.0400   21.3610   70.9990 C   0  0  0  0  0  0  0  0  0  0  0  0
   -4.3780   21.8000   72.0830 O   0  0  0  0  0  0  0  0  0  0  0  0
   -9.3770   15.7360   66.5180 O   0  0  0  0  0  0  0  0  0  0  0  0
   -9.7800   14.6770   65.6400 C   0  0  0  0  0  0  0  0  0  0  0  0
  -10.0960   13.4860   66.3700 O   0  0  0  0  0  0  0  0  0  0  0  0
  -10.2220   12.3820   65.5510 C   0  0  0  0  0  0  0  0  0  0  0  0
   -9.6480   11.2100   65.8550 C   0  0  0  0  0  0  0  0  0  0  0  0
  -11.0400   12.4960   64.3170 C   0  0  0  0  0  0  0  0  0  0  0  0
   -8.8860   11.0240   66.9790 O   0  0  0  0  0  0  0  0  0  0  0  0
  -11.6420   13.8800   64.1310 C   0  0  0  0  0  0  0  0  0  0  0  0
  -11.1910   11.6030   63.5020 O   0  0  0  0  0  0  0  0  0  0  0  0
  -11.0260   15.0600   64.8580 C   0  0  0  0  0  0  0  0  0  0  0  0
  -12.6060   14.0360   63.3980 O   0  0  0  0  0  0  0  0  0  0  0  0
  -11.4990   16.1830   64.7580 O   0  0  0  0  0  0  0  0  0  0  0  0
  -13.1580   15.7350   73.4690 C   0  0  0  0  0  0  0  0  0  0  0  0
  -12.5320   15.4190   74.7260 O   0  0  0  0  0  0  0  0  0  0  0  0
  -12.5710   16.7800   74.2580 O   0  0  0  0  0  0  0  0  0  0  0  0
  1 37  1  0  0  0  0
  1  2  2  0  0  0  0
  1  6  1  0  0  0  0
  2  3  1  0  0  0  0
  2 16  1  0  0  0  0
  3  4  1  0  0  0  0
  4  5  2  0  0  0  0
  4 15  1  0  0  0  0
  5  6  1  0  0  0  0
  5  7  1  0  0  0  0
  7  8  2  0  0  0  0
  7 13  1  0  0  0  0
  8  9  1  0  0  0  0
  9 10  2  0  0  0  0
  9 11  1  0  0  0  0
 11 12  2  0  0  0  0
 12 13  1  0  0  0  0
 13 14  2  0  0  0  0
 14 15  1  0  0  0  0
 14 49  1  0  0  0  0
 16 17  2  0  0  0  0
 16 21  1  0  0  0  0
 17 18  1  0  0  0  0
 18 19  2  0  0  0  0
 19 20  1  0  0  0  0
 20 21  2  0  0  0  0
 20 22  1  0  0  0  0
 21 23  1  0  0  0  0
 22 25  2  0  0  0  0
 23 24  2  0  0  0  0
 24 25  1  0  0  0  0
 24 26  1  0  0  0  0
 25 27  1  0  0  0  0
 26 29  1  0  0  0  0
 26 31  2  0  0  0  0
 27 28  1  0  0  0  0
 28 29  1  0  0  0  0
 28 32  1  0  0  0  0
 29 30  2  0  0  0  0
 32 33  1  0  0  0  0
 32 34  1  0  0  0  0
 32 35  1  0  0  0  0
 34 35  1  0  0  0  0
 35 36  2  0  0  0  0
 37 38  1  0  0  0  0
 38 39  1  0  0  0  0
 38 46  1  0  0  0  0
 39 40  1  0  0  0  0
 40 41  2  0  0  0  0
 40 42  1  0  0  0  0
 41 43  1  0  0  0  0
 42 44  1  0  0  0  0
 42 45  2  0  0  0  0
 44 46  1  0  0  0  0
 44 47  2  0  0  0  0
 46 48  2  0  0  0  0
 49 50  1  0  0  0  0
 49 51  1  0  0  0  0
 50 51  1  0  0  0  0
M  END
