
 OpenBabel11292000063D

 55 63  0  0  1  0  0  0  0  0999 V2000
  -10.9900   15.5420   67.0520 C   0  0  0  0  0  0  0  0  0  0  0  0
  -10.6850   16.6240   67.7950 C   0  0  0  0  0  0  0  0  0  0  0  0
  -11.0800   16.7840   69.1160 O   0  0  0  0  0  0  0  0  0  0  0  0
  -11.7030   15.7280   69.7920 C   0  0  0  0  0  0  0  0  0  0  0  0
  -12.0170   14.5880   69.1400 C   0  0  0  0  0  0  0  0  0  0  0  0
  -11.7500   14.4040   67.6690 C   0  0  0  0  0  0  0  0  0  0  0  0
  -12.6260   13.4100   69.8440 C   0  0  0  0  0  0  0  0  0  0  0  0
  -11.7220   12.3310   69.7390 O   0  0  0  0  0  0  0  0  0  0  0  0
  -12.0350   11.1840   70.4020 C   0  0  0  0  0  0  0  0  0  0  0  0
  -11.4900   10.1300   70.1220 O   0  0  0  0  0  0  0  0  0  0  0  0
  -12.9740   11.2800   71.3780 O   0  0  0  0  0  0  0  0  0  0  0  0
  -13.2930   12.4580   71.9390 C   0  0  0  0  0  0  0  0  0  0  0  0
  -14.0000   12.5470   72.9330 O   0  0  0  0  0  0  0  0  0  0  0  0
  -12.7890   13.6610   71.2800 C   0  0  0  0  0  0  0  0  0  0  0  0
  -12.5030   14.8290   71.9090 C   0  0  0  0  0  0  0  0  0  0  0  0
  -11.9870   15.8990   71.1560 O   0  0  0  0  0  0  0  0  0  0  0  0
  -11.4190   17.0260   71.8090 N   0  0  0  0  0  0  0  0  0  0  0  0
   -9.8390   17.7190   67.2860 C   0  0  0  0  0  0  0  0  0  0  0  0
  -10.4160   18.6680   66.4460 C   0  0  0  0  0  0  0  0  0  0  0  0
   -9.6170   19.6880   65.9820 C   0  0  0  0  0  0  0  0  0  0  0  0
  -10.1670   20.6170   65.1910 F   0  0  0  0  0  0  0  0  0  0  0  0
   -8.3150   19.8210   66.2870 N   0  0  0  0  0  0  0  0  0  0  0  0
   -7.7360   18.9120   67.0920 C   0  0  0  0  0  0  0  0  0  0  0  0
   -8.4650   17.8240   67.6260 C   0  0  0  0  0  0  0  0  0  0  0  0
   -6.3860   19.0400   67.4390 C   0  0  0  0  0  0  0  0  0  0  0  0
   -7.8000   16.9080   68.4730 C   0  0  0  0  0  0  0  0  0  0  0  0
   -6.4590   17.0880   68.8210 C   0  0  0  0  0  0  0  0  0  0  0  0
   -5.8160   16.1650   69.7630 C   0  0  0  0  0  0  0  0  0  0  0  0
   -5.7470   18.1610   68.3180 C   0  0  0  0  0  0  0  0  0  0  0  0
   -6.4070   15.1800   70.1830 O   0  0  0  0  0  0  0  0  0  0  0  0
   -4.4180   16.5210   70.2200 C   0  0  0  0  0  0  0  0  0  0  0  0
   -3.7350   15.7150   70.8340 O   0  0  0  0  0  0  0  0  0  0  0  0
   -4.0150   17.9480   69.9240 C   0  0  0  0  0  0  0  0  0  0  0  0
   -4.4430   18.4200   68.6400 O   0  0  0  0  0  0  0  0  0  0  0  0
   -5.6780   20.0730   66.9520 F   0  0  0  0  0  0  0  0  0  0  0  0
   -4.4870   18.8750   70.9990 C   0  0  0  0  0  0  0  0  0  0  0  0
   -5.3330   18.3050   72.0360 O   0  0  0  0  0  0  0  0  0  0  0  0
   -3.5420   19.8460   71.4280 O   0  0  0  0  0  0  0  0  0  0  0  0
   -4.6400   20.3190   70.8080 C   0  0  0  0  0  0  0  0  0  0  0  0
   -5.5160   21.0440   71.2390 O   0  0  0  0  0  0  0  0  0  0  0  0
  -10.5100   15.4210   65.7550 O   0  0  0  0  0  0  0  0  0  0  0  0
  -10.2940   14.1180   65.1860 C   0  0  0  0  0  0  0  0  0  0  0  0
   -9.7760   13.2160   66.1580 O   0  0  0  0  0  0  0  0  0  0  0  0
   -9.5530   11.9120   65.7630 C   0  0  0  0  0  0  0  0  0  0  0  0
   -8.7570   11.1280   66.4920 C   0  0  0  0  0  0  0  0  0  0  0  0
  -10.2420   11.2910   64.6000 C   0  0  0  0  0  0  0  0  0  0  0  0
   -8.1560   11.5900   67.6060 F   0  0  0  0  0  0  0  0  0  0  0  0
  -11.2760   12.1760   63.9320 C   0  0  0  0  0  0  0  0  0  0  0  0
  -10.0450   10.1470   64.2280 O   0  0  0  0  0  0  0  0  0  0  0  0
  -11.5200   13.5540   64.4790 C   0  0  0  0  0  0  0  0  0  0  0  0
  -11.9250   11.7800   62.9790 O   0  0  0  0  0  0  0  0  0  0  0  0
  -12.6190   14.0870   64.4100 O   0  0  0  0  0  0  0  0  0  0  0  0
  -12.7260   15.0200   73.3730 C   0  0  0  0  0  0  0  0  0  0  0  0
  -12.1550   16.1240   74.1020 O   0  0  0  0  0  0  0  0  0  0  0  0
  -13.5650   16.0880   73.8490 O   0  0  0  0  0  0  0  0  0  0  0  0
  1 41  1  0  0  0  0
  1  2  2  0  0  0  0
  1  6  1  0  0  0  0
  2  3  1  0  0  0  0
  2 18  1  0  0  0  0
  3  4  1  0  0  0  0
  4  5  2  0  0  0  0
  4 16  1  0  0  0  0
  5  6  1  0  0  0  0
  5  7  1  0  0  0  0
  7  8  1  0  0  0  0
  7 14  1  0  0  0  0
  8  9  1  0  0  0  0
  9 10  2  0  0  0  0
  9 11  1  0  0  0  0
 11 12  1  0  0  0  0
 12 13  2  0  0  0  0
 12 14  1  0  0  0  0
 14 15  2  0  0  0  0
 15 16  1  0  0  0  0
 15 53  1  0  0  0  0
 16 17  1  0  0  0  0
 18 19  2  0  0  0  0
 18 24  1  0  0  0  0
 19 20  1  0  0  0  0
 20 21  1  0  0  0  0
 20 22  2  0  0  0  0
 22 23  1  0  0  0  0
 23 24  2  0  0  0  0
 23 25  1  0  0  0  0
 24 26  1  0  0  0  0
 25 29  2  0  0  0  0
 25 35  1  0  0  0  0
 26 27  2  0  0  0  0
 27 28  1  0  0  0  0
 27 29  1  0  0  0  0
 28 30  2  0  0  0  0
 28 31  1  0  0  0  0
 29 34  1  0  0  0  0
 31 32  2  0  0  0  0
 31 33  1  0  0  0  0
 33 34  1  0  0  0  0
 33 36  1  0  0  0  0
 36 37  1  0  0  0  0
 36 38  1  0  0  0  0
 36 39  1  0  0  0  0
 38 39  1  0  0  0  0
 39 40  2  0  0  0  0
 41 42  1  0  0  0  0
 42 43  1  0  0  0  0
 42 50  1  0  0  0  0
 43 44  1  0  0  0  0
 44 45  2  0  0  0  0
 44 46  1  0  0  0  0
 45 47  1  0  0  0  0
 46 48  1  0  0  0  0
 46 49  2  0  0  0  0
 48 50  1  0  0  0  0
 48 51  2  0  0  0  0
 50 52  2  0  0  0  0
 53 54  1  0  0  0  0
 53 55  1  0  0  0  0
 54 55  1  0  0  0  0
M  CHG  1  16   1
M  END