
 OpenBabel11242002063D

 54 62  0  0  1  0  0  0  0  0999 V2000
  -11.3260   15.8370   67.4530 C   0  0  0  0  0  0  0  0  0  0  0  0
  -10.7230   16.8610   68.1100 C   0  0  0  0  0  0  0  0  0  0  0  0
  -10.8340   16.9760   69.5110 O   0  0  0  0  0  0  0  0  0  0  0  0
  -11.5680   16.0410   70.2590 C   0  0  0  0  0  0  0  0  0  0  0  0
  -12.1160   14.9610   69.6680 C   0  0  0  0  0  0  0  0  0  0  0  0
  -12.0450   14.7380   68.1930 C   0  0  0  0  0  0  0  0  0  0  0  0
  -12.8370   13.8820   70.4320 C   0  0  0  0  0  0  0  0  0  0  0  0
  -12.1050   12.7700   70.2130 O   0  0  0  0  0  0  0  0  0  0  0  0
  -12.3120   11.7650   70.9960 C   0  0  0  0  0  0  0  0  0  0  0  0
  -11.6960   10.6260   70.6840 F   0  0  0  0  0  0  0  0  0  0  0  0
  -13.0370   11.8020   72.1240 O   0  0  0  0  0  0  0  0  0  0  0  0
  -13.5500   13.0460   72.5390 C   0  0  0  0  0  0  0  0  0  0  0  0
  -12.8640   14.1790   71.8770 C   0  0  0  0  0  0  0  0  0  0  0  0
  -12.3500   15.3100   72.4210 C   0  0  0  0  0  0  0  0  0  0  0  0
  -11.6970   16.2550   71.6230 O   0  0  0  0  0  0  0  0  0  0  0  0
  -14.8940   13.1510   72.1320 O   0  0  0  0  0  0  0  0  0  0  0  0
   -9.8850   17.9290   67.4190 C   0  0  0  0  0  0  0  0  0  0  0  0
  -10.4860   18.7330   66.4380 C   0  0  0  0  0  0  0  0  0  0  0  0
   -9.8310   19.7290   65.8340 N   0  0  0  0  0  0  0  0  0  0  0  0
  -10.4840   20.4980   64.9410 F   0  0  0  0  0  0  0  0  0  0  0  0
   -8.5660   19.9880   66.0720 N   0  0  0  0  0  0  0  0  0  0  0  0
   -7.8910   19.2450   66.9460 C   0  0  0  0  0  0  0  0  0  0  0  0
   -8.5020   18.1860   67.6620 C   0  0  0  0  0  0  0  0  0  0  0  0
   -6.5390   19.5410   67.1490 C   0  0  0  0  0  0  0  0  0  0  0  0
   -7.6740   17.4800   68.5680 C   0  0  0  0  0  0  0  0  0  0  0  0
   -6.3150   17.7970   68.7390 C   0  0  0  0  0  0  0  0  0  0  0  0
   -5.5010   17.0140   69.6640 C   0  0  0  0  0  0  0  0  0  0  0  0
   -5.7400   18.8400   68.0500 C   0  0  0  0  0  0  0  0  0  0  0  0
   -5.9440   15.9600   70.1000 O   0  0  0  0  0  0  0  0  0  0  0  0
   -4.1390   17.5690   70.0290 C   0  0  0  0  0  0  0  0  0  0  0  0
   -3.3870   16.9000   70.7210 O   0  0  0  0  0  0  0  0  0  0  0  0
   -3.8600   18.9740   69.5190 C   0  0  0  0  0  0  0  0  0  0  0  0
   -4.4510   19.2490   68.2320 O   0  0  0  0  0  0  0  0  0  0  0  0
   -5.9990   20.5680   66.4730 F   0  0  0  0  0  0  0  0  0  0  0  0
   -4.1820   20.0320   70.5540 C   0  0  0  0  0  0  0  0  0  0  0  0
   -5.0720   21.0820   70.1380 O   0  0  0  0  0  0  0  0  0  0  0  0
   -4.3810   19.5570   71.8930 O   0  0  0  0  0  0  0  0  0  0  0  0
   -3.3270   20.3530   71.6850 C   0  0  0  0  0  0  0  0  0  0  0  0
   -2.1310   20.1990   71.8650 O   0  0  0  0  0  0  0  0  0  0  0  0
  -11.2220   15.7060   66.0800 O   0  0  0  0  0  0  0  0  0  0  0  0
  -10.7440   14.4680   65.5060 C   0  0  0  0  0  0  0  0  0  0  0  0
  -10.1290   13.6760   66.5060 O   0  0  0  0  0  0  0  0  0  0  0  0
   -9.7290   12.4180   66.0900 C   0  0  0  0  0  0  0  0  0  0  0  0
   -8.6150   11.8730   66.5930 C   0  0  0  0  0  0  0  0  0  0  0  0
  -10.5180   11.6180   65.1010 C   0  0  0  0  0  0  0  0  0  0  0  0
   -7.7920   12.5390   67.4700 O   0  0  0  0  0  0  0  0  0  0  0  0
  -11.6110   12.4010   64.3960 C   0  0  0  0  0  0  0  0  0  0  0  0
  -10.2840   10.4530   64.8350 O   0  0  0  0  0  0  0  0  0  0  0  0
  -11.9500   13.7770   64.9070 C   0  0  0  0  0  0  0  0  0  0  0  0
  -12.1280   12.0000   63.3700 O   0  0  0  0  0  0  0  0  0  0  0  0
  -13.0680   14.2670   64.8290 O   0  0  0  0  0  0  0  0  0  0  0  0
  -12.3960   15.6080   73.8750 C   0  0  0  0  0  0  0  0  0  0  0  0
  -12.0780   16.9210   74.3480 O   0  0  0  0  0  0  0  0  0  0  0  0
  -13.4350   16.4360   74.4130 O   0  0  0  0  0  0  0  0  0  0  0  0
  1 40  1  0  0  0  0
  1  2  2  0  0  0  0
  1  6  1  0  0  0  0
  2  3  1  0  0  0  0
  2 17  1  0  0  0  0
  3  4  1  0  0  0  0
  4  5  2  0  0  0  0
  4 15  1  0  0  0  0
  5  6  1  0  0  0  0
  5  7  1  0  0  0  0
  7  8  1  0  0  0  0
  7 13  1  0  0  0  0
  8  9  2  0  0  0  0
  9 10  1  0  0  0  0
  9 11  1  0  0  0  0
 11 12  1  0  0  0  0
 12 13  1  0  0  0  0
 12 16  1  0  0  0  0
 13 14  2  0  0  0  0
 14 15  1  0  0  0  0
 14 52  1  0  0  0  0
 17 18  2  0  0  0  0
 17 23  1  0  0  0  0
 18 19  1  0  0  0  0
 19 20  1  0  0  0  0
 19 21  2  0  0  0  0
 21 22  1  0  0  0  0
 22 23  2  0  0  0  0
 22 24  1  0  0  0  0
 23 25  1  0  0  0  0
 24 28  2  0  0  0  0
 24 34  1  0  0  0  0
 25 26  2  0  0  0  0
 26 27  1  0  0  0  0
 26 28  1  0  0  0  0
 27 29  2  0  0  0  0
 27 30  1  0  0  0  0
 28 33  1  0  0  0  0
 30 31  2  0  0  0  0
 30 32  1  0  0  0  0
 32 33  1  0  0  0  0
 32 35  1  0  0  0  0
 35 36  1  0  0  0  0
 35 37  1  0  0  0  0
 35 38  1  0  0  0  0
 37 38  1  0  0  0  0
 38 39  2  0  0  0  0
 40 41  1  0  0  0  0
 41 42  1  0  0  0  0
 41 49  1  0  0  0  0
 42 43  1  0  0  0  0
 43 44  2  0  0  0  0
 43 45  1  0  0  0  0
 44 46  1  0  0  0  0
 45 47  1  0  0  0  0
 45 48  2  0  0  0  0
 47 49  1  0  0  0  0
 47 50  2  0  0  0  0
 49 51  2  0  0  0  0
 52 53  1  0  0  0  0
 52 54  1  0  0  0  0
 53 54  1  0  0  0  0
M  CHG  3   8   1  15   1  19   1
M  END