
 OpenBabel10232010113D

 81 94  0  0  1  0  0  0  0  0999 V2000
  -12.2820   14.1300   65.2560 O   0  0  0  0  0  0  0  0  0  0  0  0
  -11.3670   13.4800   66.1630 C   0  0  0  0  0  0  0  0  0  0  0  0
  -11.6980   13.7940   67.6350 C   0  0  0  0  0  0  0  0  0  0  0  0
  -11.6170   15.2250   67.8610 O   0  0  0  0  0  0  0  0  0  0  0  0
  -10.5470   15.9030   67.3510 C   0  0  0  0  0  0  0  0  0  0  0  0
   -9.6250   15.2920   66.5070 C   0  0  0  0  0  0  0  0  0  0  0  0
   -9.9580   13.9960   65.8250 C   0  0  0  0  0  0  0  0  0  0  0  0
   -9.8220   14.2120   64.4060 O   0  0  0  0  0  0  0  0  0  0  0  0
   -8.3910   15.9200   66.3440 C   0  0  0  0  0  0  0  0  0  0  0  0
   -8.0770   17.1890   66.8700 C   0  0  0  0  0  0  0  0  0  0  0  0
   -9.1470   17.9580   67.4140 C   0  0  0  0  0  0  0  0  0  0  0  0
  -10.3350   17.2350   67.7120 C   0  0  0  0  0  0  0  0  0  0  0  0
  -11.2930   17.8430   68.4510 F   0  0  0  0  0  0  0  0  0  0  0  0
   -8.8720   19.3290   67.6130 C   0  0  0  0  0  0  0  0  0  0  0  0
  -10.0990   20.4310   68.1360 Cl  0  0  0  0  0  0  0  0  0  0  0  0
   -7.6050   19.9110   67.3350 C   0  0  0  0  0  0  0  0  0  0  0  0
   -6.4760   19.1350   67.0050 C   0  0  0  0  0  0  0  0  0  0  0  0
   -6.7660   17.7490   66.8710 C   0  0  0  0  0  0  0  0  0  0  0  0
   -5.4450   16.5650   66.9270 Cl  0  0  0  0  0  0  0  0  0  0  0  0
   -5.1010   19.7600   66.7380 C   0  0  0  0  0  0  0  0  0  0  0  0
   -4.7520   20.1900   65.4230 C   0  0  0  0  0  0  0  0  0  0  0  0
   -3.4470   20.6870   64.9640 C   0  0  0  0  0  0  0  0  0  0  0  0
   -2.7240   20.8760   63.5640 C   0  0  0  0  0  0  0  0  0  0  0  0
   -2.6740   21.0350   66.1000 N   0  0  0  0  0  0  0  0  0  0  0  0
   -1.3970   21.3590   63.5860 C   0  0  0  0  0  0  0  0  0  0  0  0
   -0.4710   21.2810   62.5360 N   0  0  0  0  0  0  0  0  0  0  0  0
   -0.8730   21.7330   64.8190 C   0  0  0  0  0  0  0  0  0  0  0  0
   -1.4980   21.6190   65.9800 N   0  0  0  0  0  0  0  0  0  0  0  0
   -3.0450   20.7500   67.4020 N   0  0  0  0  0  0  0  0  0  0  0  0
   -4.0980   19.9510   67.7060 C   0  0  0  0  0  0  0  0  0  0  0  0
   -2.1060   21.4410   68.6870 Cl  0  0  0  0  0  0  0  0  0  0  0  0
   -4.0610   19.2280   69.0300 C   0  0  0  0  0  0  0  0  0  0  0  0
   -3.4100   20.6100   62.0430 N   0  0  0  0  0  0  0  0  0  0  0  0
   -3.9780   21.6150   61.1530 N   0  0  0  0  0  0  0  0  0  0  0  0
   -3.7150   23.3160   61.2610 Cl  0  0  0  0  0  0  0  0  0  0  0  0
   -4.6040   21.2910   59.9490 C   0  0  0  0  0  0  0  0  0  0  0  0
   -4.8340   19.9910   59.4580 C   0  0  0  0  0  0  0  0  0  0  0  0
   -4.3880   18.9940   60.3040 C   0  0  0  0  0  0  0  0  0  0  0  0
   -5.4460   19.6320   58.2090 N   0  0  0  0  0  0  0  0  0  0  0  0
   -3.6180   19.3020   61.5600 C   0  0  0  0  0  0  0  0  0  0  0  0
   -4.7000   17.7450   59.9300 N   0  0  0  0  0  0  0  0  0  0  0  0
   -3.0710   18.1980   62.2370 N   0  0  0  0  0  0  0  0  0  0  0  0
   -5.4120   17.3810   58.8280 N   0  0  0  0  0  0  0  0  0  0  0  0
   -5.7620   18.2980   57.8600 C   0  0  0  0  0  0  0  0  0  0  0  0
   -5.8790   15.7330   58.8320 Cl  0  0  0  0  0  0  0  0  0  0  0  0
   -6.3550   18.0800   56.6290 N   0  0  0  0  0  0  0  0  0  0  0  0
   -6.5980   19.0900   55.7600 C   0  0  0  0  0  0  0  0  0  0  0  0
   -6.7870   16.5330   56.0240 Cl  0  0  0  0  0  0  0  0  0  0  0  0
   -6.2580   20.3490   56.0750 N   0  0  0  0  0  0  0  0  0  0  0  0
   -5.7130   20.6200   57.2890 N   0  0  0  0  0  0  0  0  0  0  0  0
   -6.4780   21.4590   55.0770 C   0  0  0  0  0  0  0  0  0  0  0  0
  -10.8920   12.9400   68.6990 C   0  0  0  0  0  0  0  0  0  0  0  0
   -9.6690   12.2680   68.0240 C   0  0  0  0  0  0  0  0  0  0  0  0
   -8.9590   11.2430   68.9080 C   0  0  0  0  0  0  0  0  0  0  0  0
   -9.9020   10.2000   69.4270 C   0  0  0  0  0  0  0  0  0  0  0  0
  -11.1980   10.5500   69.7600 C   0  0  0  0  0  0  0  0  0  0  0  0
   -9.4720    8.8800   69.6680 C   0  0  0  0  0  0  0  0  0  0  0  0
  -11.8180   11.8890   69.3920 C   0  0  0  0  0  0  0  0  0  0  0  0
  -11.9920    9.6300   70.4810 C   0  0  0  0  0  0  0  0  0  0  0  0
  -12.4900   12.4600   70.6630 C   0  0  0  0  0  0  0  0  0  0  0  0
  -11.5260   12.9560   71.5030 F   0  0  0  0  0  0  0  0  0  0  0  0
  -13.3520   11.4570   71.4440 C   0  0  0  0  0  0  0  0  0  0  0  0
  -13.4140   10.0810   70.7660 C   0  0  0  0  0  0  0  0  0  0  0  0
  -14.2360    9.0690   71.5560 C   0  0  0  0  0  0  0  0  0  0  0  0
  -13.3880    8.4500   72.6490 C   0  0  0  0  0  0  0  0  0  0  0  0
  -12.2430    7.6400   72.0250 C   0  0  0  0  0  0  0  0  0  0  0  0
  -11.4720    8.3850   70.9320 C   0  0  0  0  0  0  0  0  0  0  0  0
  -11.1590    7.2070   73.3920 Cl  0  0  0  0  0  0  0  0  0  0  0  0
  -10.2370    7.9230   70.3900 C   0  0  0  0  0  0  0  0  0  0  0  0
   -9.7100    6.5130   70.5260 C   0  0  0  0  0  0  0  0  0  0  0  0
   -8.6090    6.1910   71.3490 C   0  0  0  0  0  0  0  0  0  0  0  0
   -8.0870    4.8850   71.4670 C   0  0  0  0  0  0  0  0  0  0  0  0
   -6.7080    4.6970   72.0650 C   0  0  0  0  0  0  0  0  0  0  0  0
   -8.7860    3.8160   70.9000 C   0  0  0  0  0  0  0  0  0  0  0  0
   -6.2830    3.2490   72.3220 C   0  0  0  0  0  0  0  0  0  0  0  0
   -6.8480    2.2820   71.2840 C   0  0  0  0  0  0  0  0  0  0  0  0
   -8.3750    2.3870   71.1850 C   0  0  0  0  0  0  0  0  0  0  0  0
   -9.0620    1.8890   72.4670 C   0  0  0  0  0  0  0  0  0  0  0  0
   -9.8850    4.0950   70.0870 C   0  0  0  0  0  0  0  0  0  0  0  0
  -10.2920    5.4160   69.8630 C   0  0  0  0  0  0  0  0  0  0  0  0
  -11.2750    5.6040   68.9670 F   0  0  0  0  0  0  0  0  0  0  0  0
  1  2  1  0  0  0  0
  2  3  1  0  0  0  0
  2  7  1  0  0  0  0
  3  4  1  0  0  0  0
  3 52  1  0  0  0  0
  4  5  1  0  0  0  0
  5  6  2  0  0  0  0
  5 12  1  0  0  0  0
  6  7  1  0  0  0  0
  6  9  1  0  0  0  0
  7  8  1  0  0  0  0
  9 10  2  0  0  0  0
 10 11  1  0  0  0  0
 10 18  1  0  0  0  0
 11 12  2  0  0  0  0
 11 14  1  0  0  0  0
 12 13  1  0  0  0  0
 14 15  1  0  0  0  0
 14 16  2  0  0  0  0
 16 17  1  0  0  0  0
 17 18  2  0  0  0  0
 17 20  1  0  0  0  0
 18 19  1  0  0  0  0
 20 21  2  0  0  0  0
 20 30  1  0  0  0  0
 21 22  1  0  0  0  0
 22 23  2  0  0  0  0
 22 24  1  0  0  0  0
 23 25  1  0  0  0  0
 23 33  1  0  0  0  0
 24 28  2  0  0  0  0
 24 29  1  0  0  0  0
 25 26  1  0  0  0  0
 25 27  2  0  0  0  0
 27 28  1  0  0  0  0
 29 30  2  0  0  0  0
 29 31  1  0  0  0  0
 30 32  1  0  0  0  0
 33 34  2  0  0  0  0
 33 40  1  0  0  0  0
 34 35  1  0  0  0  0
 34 36  1  0  0  0  0
 36 37  2  0  0  0  0
 37 38  1  0  0  0  0
 37 39  1  0  0  0  0
 38 40  2  0  0  0  0
 38 41  1  0  0  0  0
 39 44  2  0  0  0  0
 39 50  1  0  0  0  0
 40 42  1  0  0  0  0
 41 43  2  0  0  0  0
 43 44  1  0  0  0  0
 43 45  1  0  0  0  0
 44 46  1  0  0  0  0
 46 47  2  0  0  0  0
 46 48  1  0  0  0  0
 47 49  1  0  0  0  0
 49 50  2  0  0  0  0
 49 51  1  0  0  0  0
 52 53  1  0  0  0  0
 52 58  1  0  0  0  0
 53 54  1  0  0  0  0
 54 55  1  0  0  0  0
 55 56  2  0  0  0  0
 55 57  1  0  0  0  0
 56 58  1  0  0  0  0
 56 59  1  0  0  0  0
 57 69  2  0  0  0  0
 58 60  1  0  0  0  0
 59 63  1  0  0  0  0
 59 67  2  0  0  0  0
 60 61  1  0  0  0  0
 60 62  1  0  0  0  0
 62 63  1  0  0  0  0
 63 64  1  0  0  0  0
 64 65  1  0  0  0  0
 65 66  1  0  0  0  0
 66 67  1  0  0  0  0
 66 68  1  0  0  0  0
 67 69  1  0  0  0  0
 69 70  1  0  0  0  0
 70 71  2  0  0  0  0
 70 80  1  0  0  0  0
 71 72  1  0  0  0  0
 72 73  1  0  0  0  0
 72 74  2  0  0  0  0
 73 75  1  0  0  0  0
 74 77  1  0  0  0  0
 74 79  1  0  0  0  0
 75 76  1  0  0  0  0
 76 77  1  0  0  0  0
 77 78  1  0  0  0  0
 79 80  2  0  0  0  0
 80 81  1  0  0  0  0
M  CHG  8  24   1  29   1  33   1  34   1  43   1  39   1  49   1  46   1
M  END