
 OpenBabel09222017323D

 49 56  0  0  1  0  0  0  0  0999 V2000
   -9.8770   15.4850   68.1070 C   0  0  0  0  0  0  0  0  0  0  0  0
  -10.1910   16.6430   68.7250 C   0  0  0  0  0  0  0  0  0  0  0  0
  -10.9280   16.7170   69.9030 O   0  0  0  0  0  0  0  0  0  0  0  0
  -11.5320   15.5740   70.3780 C   0  0  0  0  0  0  0  0  0  0  0  0
  -11.2180   14.3050   69.8880 C   0  0  0  0  0  0  0  0  0  0  0  0
  -10.2280   14.1790   68.7680 C   0  0  0  0  0  0  0  0  0  0  0  0
  -11.8760   13.1820   70.4260 C   0  0  0  0  0  0  0  0  0  0  0  0
  -11.5470   11.8920   69.9870 N   0  0  0  0  0  0  0  0  0  0  0  0
  -12.2390   10.7670   70.2960 C   0  0  0  0  0  0  0  0  0  0  0  0
  -11.9270    9.6770   69.8300 O   0  0  0  0  0  0  0  0  0  0  0  0
  -13.3040   10.9110   71.1180 N   0  0  0  0  0  0  0  0  0  0  0  0
  -13.5140   12.0740   71.9390 C   0  0  0  0  0  0  0  0  0  0  0  0
  -12.8770   13.3200   71.3970 C   0  0  0  0  0  0  0  0  0  0  0  0
  -13.1750   14.6050   71.8630 C   0  0  0  0  0  0  0  0  0  0  0  0
  -12.5000   15.7240   71.3680 C   0  0  0  0  0  0  0  0  0  0  0  0
  -14.1180   14.8580   72.8190 O   0  0  0  0  0  0  0  0  0  0  0  0
   -9.7760   17.9630   68.2070 C   0  0  0  0  0  0  0  0  0  0  0  0
  -10.7370   18.6130   67.5020 N   0  0  0  0  0  0  0  0  0  0  0  0
  -10.4250   19.8200   66.9870 C   0  0  0  0  0  0  0  0  0  0  0  0
   -9.1860   20.4180   67.1270 C   0  0  0  0  0  0  0  0  0  0  0  0
   -8.1900   19.7440   67.8380 C   0  0  0  0  0  0  0  0  0  0  0  0
   -8.4750   18.4820   68.4080 C   0  0  0  0  0  0  0  0  0  0  0  0
   -6.9070   20.3060   67.9770 C   0  0  0  0  0  0  0  0  0  0  0  0
   -7.4420   17.8230   69.1140 C   0  0  0  0  0  0  0  0  0  0  0  0
   -6.1680   18.3960   69.2260 C   0  0  0  0  0  0  0  0  0  0  0  0
   -5.8970   19.6350   68.6670 C   0  0  0  0  0  0  0  0  0  0  0  0
   -5.1030   17.6660   69.9150 C   0  0  0  0  0  0  0  0  0  0  0  0
   -4.6860   20.2570   68.6960 O   0  0  0  0  0  0  0  0  0  0  0  0
   -3.7250   19.7910   69.6440 C   0  0  0  0  0  0  0  0  0  0  0  0
   -3.7450   18.3200   69.9810 C   0  0  0  0  0  0  0  0  0  0  0  0
   -2.7780   17.7190   70.4290 O   0  0  0  0  0  0  0  0  0  0  0  0
   -5.2990   16.5860   70.4520 O   0  0  0  0  0  0  0  0  0  0  0  0
   -3.7530   20.6520   70.8720 C   0  0  0  0  0  0  0  0  0  0  0  0
   -4.6800   21.7630   70.8420 O   0  0  0  0  0  0  0  0  0  0  0  0
   -3.6790   19.9320   72.1030 O   0  0  0  0  0  0  0  0  0  0  0  0
   -2.6590   20.7800   71.8410 C   0  0  0  0  0  0  0  0  0  0  0  0
   -2.2850   21.7400   72.4740 O   0  0  0  0  0  0  0  0  0  0  0  0
   -9.2040   15.4780   66.8870 O   0  0  0  0  0  0  0  0  0  0  0  0
   -9.7810   14.7110   65.8270 C   0  0  0  0  0  0  0  0  0  0  0  0
  -10.3760   13.5130   66.3240 O   0  0  0  0  0  0  0  0  0  0  0  0
  -10.7650   12.6340   65.2750 C   0  0  0  0  0  0  0  0  0  0  0  0
  -11.9990   13.2020   64.6460 C   0  0  0  0  0  0  0  0  0  0  0  0
  -11.9420   14.7060   64.4580 C   0  0  0  0  0  0  0  0  0  0  0  0
  -12.9560   12.5430   64.2720 O   0  0  0  0  0  0  0  0  0  0  0  0
  -10.8290   15.5340   65.0800 C   0  0  0  0  0  0  0  0  0  0  0  0
  -12.7970   15.2510   63.7760 O   0  0  0  0  0  0  0  0  0  0  0  0
  -10.7780   16.7420   64.8960 O   0  0  0  0  0  0  0  0  0  0  0  0
  -10.9600   11.2590   65.8610 C   0  0  0  0  0  0  0  0  0  0  0  0
  -11.6120   11.0740   66.8860 O   0  0  0  0  0  0  0  0  0  0  0  0
  1 38  1  0  0  0  0
  1  2  2  0  0  0  0
  1  6  1  0  0  0  0
  2  3  1  0  0  0  0
  2 17  1  0  0  0  0
  3  4  1  0  0  0  0
  4  5  2  0  0  0  0
  4 15  1  0  0  0  0
  5  6  1  0  0  0  0
  5  7  1  0  0  0  0
  7  8  1  0  0  0  0
  7 13  2  0  0  0  0
  8  9  1  0  0  0  0
  9 10  2  0  0  0  0
  9 11  1  0  0  0  0
 11 12  1  0  0  0  0
 12 13  1  0  0  0  0
 13 14  1  0  0  0  0
 14 15  2  0  0  0  0
 14 16  1  0  0  0  0
 17 18  2  0  0  0  0
 17 22  1  0  0  0  0
 18 19  1  0  0  0  0
 19 20  2  0  0  0  0
 20 21  1  0  0  0  0
 21 22  2  0  0  0  0
 21 23  1  0  0  0  0
 22 24  1  0  0  0  0
 23 26  2  0  0  0  0
 24 25  2  0  0  0  0
 25 26  1  0  0  0  0
 25 27  1  0  0  0  0
 26 28  1  0  0  0  0
 27 30  1  0  0  0  0
 27 32  2  0  0  0  0
 28 29  1  0  0  0  0
 29 30  1  0  0  0  0
 29 33  1  0  0  0  0
 30 31  2  0  0  0  0
 33 34  1  0  0  0  0
 33 35  1  0  0  0  0
 33 36  1  0  0  0  0
 35 36  1  0  0  0  0
 36 37  2  0  0  0  0
 38 39  1  0  0  0  0
 39 40  1  0  0  0  0
 39 45  1  0  0  0  0
 40 41  1  0  0  0  0
 41 42  1  0  0  0  0
 41 48  1  0  0  0  0
 42 43  1  0  0  0  0
 42 44  2  0  0  0  0
 43 45  1  0  0  0  0
 43 46  2  0  0  0  0
 45 47  2  0  0  0  0
 48 49  2  0  0  0  0
M  END
