
 OpenBabel09252023023D

 48 55  0  0  1  0  0  0  0  0999 V2000
  -10.6490   15.7790   67.4120 C   0  0  0  0  0  0  0  0  0  0  0  0
  -10.6600   16.9450   68.0960 C   0  0  0  0  0  0  0  0  0  0  0  0
  -11.1900   17.0780   69.3800 O   0  0  0  0  0  0  0  0  0  0  0  0
  -11.7190   15.9610   70.0170 C   0  0  0  0  0  0  0  0  0  0  0  0
  -11.7510   14.7650   69.4140 C   0  0  0  0  0  0  0  0  0  0  0  0
  -11.2620   14.5440   68.0280 C   0  0  0  0  0  0  0  0  0  0  0  0
  -12.2480   13.5950   70.1910 C   0  0  0  0  0  0  0  0  0  0  0  0
  -12.2560   12.4200   69.6540 N   0  0  0  0  0  0  0  0  0  0  0  0
  -12.6910   11.3510   70.3890 C   0  0  0  0  0  0  0  0  0  0  0  0
  -12.6800   10.2480   69.8420 O   0  0  0  0  0  0  0  0  0  0  0  0
  -13.1220   11.4470   71.7090 N   0  0  0  0  0  0  0  0  0  0  0  0
  -13.1220   12.6090   72.2560 C   0  0  0  0  0  0  0  0  0  0  0  0
  -12.7000   13.8290   71.5780 C   0  0  0  0  0  0  0  0  0  0  0  0
  -12.6740   15.0860   72.0840 C   0  0  0  0  0  0  0  0  0  0  0  0
  -12.1920   16.1240   71.2950 N   0  0  0  0  0  0  0  0  0  0  0  0
  -10.0380   18.1740   67.5660 C   0  0  0  0  0  0  0  0  0  0  0  0
  -10.9670   19.0110   67.0470 N   0  0  0  0  0  0  0  0  0  0  0  0
  -10.5260   20.2130   66.6920 C   0  0  0  0  0  0  0  0  0  0  0  0
   -9.2720   20.6430   66.8160 N   0  0  0  0  0  0  0  0  0  0  0  0
   -8.3570   19.8070   67.3370 C   0  0  0  0  0  0  0  0  0  0  0  0
   -8.6590   18.4930   67.7130 C   0  0  0  0  0  0  0  0  0  0  0  0
   -7.0470   20.2550   67.5060 C   0  0  0  0  0  0  0  0  0  0  0  0
   -7.5780   17.6520   68.1830 C   0  0  0  0  0  0  0  0  0  0  0  0
   -7.7490   16.1490   68.1160 C   0  0  0  0  0  0  0  0  0  0  0  0
   -6.3000   18.2040   68.5500 C   0  0  0  0  0  0  0  0  0  0  0  0
   -5.2560   17.5860   69.3180 C   0  0  0  0  0  0  0  0  0  0  0  0
   -6.0400   19.5090   68.1140 C   0  0  0  0  0  0  0  0  0  0  0  0
   -5.4670   16.3050   70.0860 C   0  0  0  0  0  0  0  0  0  0  0  0
   -4.0150   18.2270   69.4120 C   0  0  0  0  0  0  0  0  0  0  0  0
   -2.8500   17.6530   70.1620 C   0  0  0  0  0  0  0  0  0  0  0  0
   -3.8120   19.4420   68.8750 N   0  0  0  0  0  0  0  0  0  0  0  0
   -4.8370   20.0880   68.2600 N   0  0  0  0  0  0  0  0  0  0  0  0
   -6.7260   21.5380   67.0770 O   0  0  0  0  0  0  0  0  0  0  0  0
  -10.1370   15.7050   66.1200 O   0  0  0  0  0  0  0  0  0  0  0  0
   -9.9800   14.4010   65.5350 C   0  0  0  0  0  0  0  0  0  0  0  0
   -9.7780   13.4060   66.5400 O   0  0  0  0  0  0  0  0  0  0  0  0
   -9.5390   12.1330   66.0660 C   0  0  0  0  0  0  0  0  0  0  0  0
   -8.6000   11.3490   66.6120 C   0  0  0  0  0  0  0  0  0  0  0  0
  -10.3830   11.5760   64.9800 C   0  0  0  0  0  0  0  0  0  0  0  0
   -7.7830   11.7800   67.6240 O   0  0  0  0  0  0  0  0  0  0  0  0
  -11.2560   12.6070   64.2930 C   0  0  0  0  0  0  0  0  0  0  0  0
  -10.3750   10.4040   64.6410 O   0  0  0  0  0  0  0  0  0  0  0  0
  -11.2400   14.0440   64.7600 C   0  0  0  0  0  0  0  0  0  0  0  0
  -11.9390   12.2850   63.3320 O   0  0  0  0  0  0  0  0  0  0  0  0
  -12.1680   14.7950   64.4950 O   0  0  0  0  0  0  0  0  0  0  0  0
  -13.1140   15.4780   73.4460 C   0  0  0  0  0  0  0  0  0  0  0  0
  -12.2500   15.2820   74.5810 O   0  0  0  0  0  0  0  0  0  0  0  0
  -12.6090   16.6110   74.1710 O   0  0  0  0  0  0  0  0  0  0  0  0
  1 34  1  0  0  0  0
  1  2  2  0  0  0  0
  1  6  1  0  0  0  0
  2  3  1  0  0  0  0
  2 16  1  0  0  0  0
  3  4  1  0  0  0  0
  4  5  2  0  0  0  0
  4 15  1  0  0  0  0
  5  6  1  0  0  0  0
  5  7  1  0  0  0  0
  7  8  2  0  0  0  0
  7 13  1  0  0  0  0
  8  9  1  0  0  0  0
  9 10  2  0  0  0  0
  9 11  1  0  0  0  0
 11 12  2  0  0  0  0
 12 13  1  0  0  0  0
 13 14  2  0  0  0  0
 14 15  1  0  0  0  0
 14 46  1  0  0  0  0
 16 17  2  0  0  0  0
 16 21  1  0  0  0  0
 17 18  1  0  0  0  0
 18 19  2  0  0  0  0
 19 20  1  0  0  0  0
 20 21  2  0  0  0  0
 20 22  1  0  0  0  0
 21 23  1  0  0  0  0
 22 27  2  0  0  0  0
 22 33  1  0  0  0  0
 23 24  1  0  0  0  0
 23 25  2  0  0  0  0
 25 26  1  0  0  0  0
 25 27  1  0  0  0  0
 26 28  1  0  0  0  0
 26 29  2  0  0  0  0
 27 32  1  0  0  0  0
 29 30  1  0  0  0  0
 29 31  1  0  0  0  0
 31 32  2  0  0  0  0
 34 35  1  0  0  0  0
 35 36  1  0  0  0  0
 35 43  1  0  0  0  0
 36 37  1  0  0  0  0
 37 38  2  0  0  0  0
 37 39  1  0  0  0  0
 38 40  1  0  0  0  0
 39 41  1  0  0  0  0
 39 42  2  0  0  0  0
 41 43  1  0  0  0  0
 41 44  2  0  0  0  0
 43 45  2  0  0  0  0
 46 47  1  0  0  0  0
 46 48  1  0  0  0  0
 47 48  1  0  0  0  0
M  END
