
 OpenBabel11262000573D

 54 62  0  0  1  0  0  0  0  0999 V2000
  -11.0360   15.6020   67.0490 C   0  0  0  0  0  0  0  0  0  0  0  0
  -10.7080   16.7440   67.7050 C   0  0  0  0  0  0  0  0  0  0  0  0
  -11.1450   16.9860   69.0200 O   0  0  0  0  0  0  0  0  0  0  0  0
  -11.7070   15.9610   69.7800 C   0  0  0  0  0  0  0  0  0  0  0  0
  -12.0820   14.8100   69.1950 C   0  0  0  0  0  0  0  0  0  0  0  0
  -11.8860   14.5610   67.7310 C   0  0  0  0  0  0  0  0  0  0  0  0
  -12.6680   13.6680   69.9740 C   0  0  0  0  0  0  0  0  0  0  0  0
  -11.8080   12.5510   69.8040 O   0  0  0  0  0  0  0  0  0  0  0  0
  -12.2300   11.3960   70.3880 C   0  0  0  0  0  0  0  0  0  0  0  0
  -11.8120   10.3080   70.0360 O   0  0  0  0  0  0  0  0  0  0  0  0
  -13.1730   11.5660   71.3450 O   0  0  0  0  0  0  0  0  0  0  0  0
  -13.0960   12.7170   72.1750 C   0  0  0  0  0  0  0  0  0  0  0  0
  -12.6640   13.9340   71.4280 C   0  0  0  0  0  0  0  0  0  0  0  0
  -12.2520   15.1050   71.9620 C   0  0  0  0  0  0  0  0  0  0  0  0
  -11.8360   16.1490   71.1430 O   0  0  0  0  0  0  0  0  0  0  0  0
  -14.3980   13.0210   72.6310 O   0  0  0  0  0  0  0  0  0  0  0  0
   -9.8660   17.8390   67.1140 C   0  0  0  0  0  0  0  0  0  0  0  0
  -10.4800   18.7960   66.3000 C   0  0  0  0  0  0  0  0  0  0  0  0
   -9.7870   19.7870   65.7360 N   0  0  0  0  0  0  0  0  0  0  0  0
  -10.4270   20.6610   64.9370 F   0  0  0  0  0  0  0  0  0  0  0  0
   -8.4990   19.9560   65.9430 N   0  0  0  0  0  0  0  0  0  0  0  0
   -7.8460   19.1240   66.7540 C   0  0  0  0  0  0  0  0  0  0  0  0
   -8.4750   18.0160   67.3660 C   0  0  0  0  0  0  0  0  0  0  0  0
   -6.5070   19.3930   67.0350 C   0  0  0  0  0  0  0  0  0  0  0  0
   -7.6660   17.1930   68.1950 C   0  0  0  0  0  0  0  0  0  0  0  0
   -6.3440   17.5310   68.5100 C   0  0  0  0  0  0  0  0  0  0  0  0
   -5.6080   16.7690   69.5220 C   0  0  0  0  0  0  0  0  0  0  0  0
   -5.7670   18.6530   67.9560 C   0  0  0  0  0  0  0  0  0  0  0  0
   -6.0710   15.7220   69.9530 O   0  0  0  0  0  0  0  0  0  0  0  0
   -4.3400   17.4060   70.0610 C   0  0  0  0  0  0  0  0  0  0  0  0
   -3.5840   16.7610   70.7710 O   0  0  0  0  0  0  0  0  0  0  0  0
   -4.1760   18.8710   69.7050 C   0  0  0  0  0  0  0  0  0  0  0  0
   -4.5510   19.1390   68.3380 O   0  0  0  0  0  0  0  0  0  0  0  0
   -5.9400   20.4760   66.4810 F   0  0  0  0  0  0  0  0  0  0  0  0
   -4.8460   19.7880   70.7120 C   0  0  0  0  0  0  0  0  0  0  0  0
   -5.8460   20.6780   70.1850 O   0  0  0  0  0  0  0  0  0  0  0  0
   -5.1770   19.1790   71.9760 O   0  0  0  0  0  0  0  0  0  0  0  0
   -4.3000   20.1800   71.9970 C   0  0  0  0  0  0  0  0  0  0  0  0
   -3.1600   20.2860   72.4220 O   0  0  0  0  0  0  0  0  0  0  0  0
  -10.5630   15.3420   65.7650 O   0  0  0  0  0  0  0  0  0  0  0  0
   -9.9750   14.0510   65.4260 C   0  0  0  0  0  0  0  0  0  0  0  0
   -9.6690   13.3060   66.6010 O   0  0  0  0  0  0  0  0  0  0  0  0
   -9.6310   11.9220   66.5260 C   0  0  0  0  0  0  0  0  0  0  0  0
   -9.3080   11.2090   67.6130 C   0  0  0  0  0  0  0  0  0  0  0  0
   -9.9930   11.1640   65.2800 C   0  0  0  0  0  0  0  0  0  0  0  0
   -8.9870   11.7990   68.8110 O   0  0  0  0  0  0  0  0  0  0  0  0
  -10.3530   11.9930   64.0760 C   0  0  0  0  0  0  0  0  0  0  0  0
   -9.9220    9.9380   65.2330 O   0  0  0  0  0  0  0  0  0  0  0  0
  -10.9440   13.3210   64.4940 C   0  0  0  0  0  0  0  0  0  0  0  0
  -11.2300   11.3720   63.2370 F   0  0  0  0  0  0  0  0  0  0  0  0
  -12.1340   13.1370   65.1410 F   0  0  0  0  0  0  0  0  0  0  0  0
  -12.1540   15.3450   73.4190 C   0  0  0  0  0  0  0  0  0  0  0  0
  -11.9560   16.6730   73.9200 O   0  0  0  0  0  0  0  0  0  0  0  0
  -13.2190   16.0080   74.1180 O   0  0  0  0  0  0  0  0  0  0  0  0
  1 40  1  0  0  0  0
  1  2  2  0  0  0  0
  1  6  1  0  0  0  0
  2  3  1  0  0  0  0
  2 17  1  0  0  0  0
  3  4  1  0  0  0  0
  4  5  2  0  0  0  0
  4 15  1  0  0  0  0
  5  6  1  0  0  0  0
  5  7  1  0  0  0  0
  7  8  1  0  0  0  0
  7 13  1  0  0  0  0
  8  9  1  0  0  0  0
  9 10  2  0  0  0  0
  9 11  1  0  0  0  0
 11 12  1  0  0  0  0
 12 13  1  0  0  0  0
 12 16  1  0  0  0  0
 13 14  2  0  0  0  0
 14 15  1  0  0  0  0
 14 52  1  0  0  0  0
 17 18  2  0  0  0  0
 17 23  1  0  0  0  0
 18 19  1  0  0  0  0
 19 20  1  0  0  0  0
 19 21  2  0  0  0  0
 21 22  1  0  0  0  0
 22 23  2  0  0  0  0
 22 24  1  0  0  0  0
 23 25  1  0  0  0  0
 24 28  2  0  0  0  0
 24 34  1  0  0  0  0
 25 26  2  0  0  0  0
 26 27  1  0  0  0  0
 26 28  1  0  0  0  0
 27 29  2  0  0  0  0
 27 30  1  0  0  0  0
 28 33  1  0  0  0  0
 30 31  2  0  0  0  0
 30 32  1  0  0  0  0
 32 33  1  0  0  0  0
 32 35  1  0  0  0  0
 35 36  1  0  0  0  0
 35 37  1  0  0  0  0
 35 38  1  0  0  0  0
 37 38  1  0  0  0  0
 38 39  2  0  0  0  0
 40 41  1  0  0  0  0
 41 42  1  0  0  0  0
 41 49  1  0  0  0  0
 42 43  1  0  0  0  0
 43 44  2  0  0  0  0
 43 45  1  0  0  0  0
 44 46  1  0  0  0  0
 45 47  1  0  0  0  0
 45 48  2  0  0  0  0
 47 49  1  0  0  0  0
 47 50  1  0  0  0  0
 49 51  1  0  0  0  0
 52 53  1  0  0  0  0
 52 54  1  0  0  0  0
 53 54  1  0  0  0  0
M  CHG  2  15   1  19   1
M  END