
 OpenBabel10272000333D

 51 59  0  0  1  0  0  0  0  0999 V2000
  -10.7740   15.9070   67.0440 C   0  0  0  0  0  0  0  0  0  0  0  0
  -10.5090   17.0040   67.7940 C   0  0  0  0  0  0  0  0  0  0  0  0
  -10.7760   17.0300   69.1590 O   0  0  0  0  0  0  0  0  0  0  0  0
  -11.2910   15.9310   69.8130 C   0  0  0  0  0  0  0  0  0  0  0  0
  -11.5980   14.7910   69.1860 C   0  0  0  0  0  0  0  0  0  0  0  0
  -11.3730   14.6760   67.7000 C   0  0  0  0  0  0  0  0  0  0  0  0
  -12.2170   13.5800   69.8200 C   0  0  0  0  0  0  0  0  0  0  0  0
  -11.2860   12.5070   69.7900 O   0  0  0  0  0  0  0  0  0  0  0  0
  -11.7680   11.2880   70.1480 C   0  0  0  0  0  0  0  0  0  0  0  0
  -11.2030   10.2500   69.8420 O   0  0  0  0  0  0  0  0  0  0  0  0
  -12.9440   11.2970   70.8330 O   0  0  0  0  0  0  0  0  0  0  0  0
  -13.3820   12.4310   71.6080 C   0  0  0  0  0  0  0  0  0  0  0  0
  -12.6840   13.6960   71.2250 C   0  0  0  0  0  0  0  0  0  0  0  0
  -12.5160   14.7360   72.0620 C   0  0  0  0  0  0  0  0  0  0  0  0
  -11.4710   16.0890   71.5570 S   0  0  0  0  0  0  0  0  0  0  0  0
   -9.9710   18.3200   67.3830 C   0  0  0  0  0  0  0  0  0  0  0  0
  -10.7620   19.0000   66.5250 N   0  0  0  0  0  0  0  0  0  0  0  0
  -10.2270   20.0970   65.9730 C   0  0  0  0  0  0  0  0  0  0  0  0
   -9.0210   20.6110   66.2450 N   0  0  0  0  0  0  0  0  0  0  0  0
   -8.2420   19.9260   67.0840 C   0  0  0  0  0  0  0  0  0  0  0  0
   -8.6710   18.7440   67.7110 C   0  0  0  0  0  0  0  0  0  0  0  0
   -6.9290   20.3550   67.2740 C   0  0  0  0  0  0  0  0  0  0  0  0
   -7.7880   18.0540   68.5650 C   0  0  0  0  0  0  0  0  0  0  0  0
   -6.4890   18.5240   68.7470 C   0  0  0  0  0  0  0  0  0  0  0  0
   -6.0330   19.6530   68.0830 C   0  0  0  0  0  0  0  0  0  0  0  0
   -5.5800   17.7910   69.6180 C   0  0  0  0  0  0  0  0  0  0  0  0
   -4.7490   20.1170   68.1210 O   0  0  0  0  0  0  0  0  0  0  0  0
   -3.8420   19.5170   69.0580 C   0  0  0  0  0  0  0  0  0  0  0  0
   -4.1220   18.0760   69.4080 C   0  0  0  0  0  0  0  0  0  0  0  0
   -3.2740   17.2240   69.6270 O   0  0  0  0  0  0  0  0  0  0  0  0
   -5.9620   17.0420   70.5000 O   0  0  0  0  0  0  0  0  0  0  0  0
   -3.7410   20.3750   70.2840 C   0  0  0  0  0  0  0  0  0  0  0  0
   -4.7890   21.3560   70.4580 O   0  0  0  0  0  0  0  0  0  0  0  0
   -3.3660   19.6710   71.4690 O   0  0  0  0  0  0  0  0  0  0  0  0
   -2.5120   20.6090   71.0350 C   0  0  0  0  0  0  0  0  0  0  0  0
   -2.1160   21.6080   71.6200 O   0  0  0  0  0  0  0  0  0  0  0  0
  -10.6020   15.6940   65.6970 O   0  0  0  0  0  0  0  0  0  0  0  0
  -10.6040   14.4000   65.1050 C   0  0  0  0  0  0  0  0  0  0  0  0
  -10.0610   13.4240   65.9840 O   0  0  0  0  0  0  0  0  0  0  0  0
   -9.9180   12.1700   65.4240 C   0  0  0  0  0  0  0  0  0  0  0  0
   -8.9620   11.3340   65.8330 C   0  0  0  0  0  0  0  0  0  0  0  0
  -10.8750   11.6720   64.4050 C   0  0  0  0  0  0  0  0  0  0  0  0
   -8.1200   11.6290   66.8720 O   0  0  0  0  0  0  0  0  0  0  0  0
  -12.1020   12.5410   64.2900 C   0  0  0  0  0  0  0  0  0  0  0  0
  -10.7130   10.6760   63.7210 O   0  0  0  0  0  0  0  0  0  0  0  0
  -11.9150   14.0310   64.4010 C   0  0  0  0  0  0  0  0  0  0  0  0
  -13.2050   12.0360   64.1590 O   0  0  0  0  0  0  0  0  0  0  0  0
  -12.6860   14.8090   63.8590 O   0  0  0  0  0  0  0  0  0  0  0  0
  -13.0560   14.8480   73.4360 C   0  0  0  0  0  0  0  0  0  0  0  0
  -12.2060   14.9120   74.5970 O   0  0  0  0  0  0  0  0  0  0  0  0
  -12.9530   16.0710   74.1850 O   0  0  0  0  0  0  0  0  0  0  0  0
  1 37  1  0  0  0  0
  1  2  2  0  0  0  0
  1  6  1  0  0  0  0
  2  3  1  0  0  0  0
  2 16  1  0  0  0  0
  3  4  1  0  0  0  0
  4  5  2  0  0  0  0
  4 15  1  0  0  0  0
  5  6  1  0  0  0  0
  5  7  1  0  0  0  0
  7  8  1  0  0  0  0
  7 13  1  0  0  0  0
  8  9  1  0  0  0  0
  9 10  2  0  0  0  0
  9 11  1  0  0  0  0
 11 12  1  0  0  0  0
 12 13  1  0  0  0  0
 13 14  2  0  0  0  0
 14 15  1  0  0  0  0
 14 49  1  0  0  0  0
 16 17  2  0  0  0  0
 16 21  1  0  0  0  0
 17 18  1  0  0  0  0
 18 19  2  0  0  0  0
 19 20  1  0  0  0  0
 20 21  2  0  0  0  0
 20 22  1  0  0  0  0
 21 23  1  0  0  0  0
 22 25  2  0  0  0  0
 23 24  2  0  0  0  0
 24 25  1  0  0  0  0
 24 26  1  0  0  0  0
 25 27  1  0  0  0  0
 26 29  1  0  0  0  0
 26 31  2  0  0  0  0
 27 28  1  0  0  0  0
 28 29  1  0  0  0  0
 28 32  1  0  0  0  0
 29 30  2  0  0  0  0
 32 33  1  0  0  0  0
 32 34  1  0  0  0  0
 32 35  1  0  0  0  0
 34 35  1  0  0  0  0
 35 36  2  0  0  0  0
 37 38  1  0  0  0  0
 38 39  1  0  0  0  0
 38 46  1  0  0  0  0
 39 40  1  0  0  0  0
 40 41  2  0  0  0  0
 40 42  1  0  0  0  0
 41 43  1  0  0  0  0
 42 44  1  0  0  0  0
 42 45  2  0  0  0  0
 44 46  1  0  0  0  0
 44 47  2  0  0  0  0
 46 48  2  0  0  0  0
 49 50  1  0  0  0  0
 49 51  1  0  0  0  0
 50 51  1  0  0  0  0
M  CHG  1  15   1
M  END