
 OpenBabel11252003043D

 54 63  0  0  1  0  0  0  0  0999 V2000
  -10.0110   15.3700   67.4040 C   0  0  0  0  0  0  0  0  0  0  0  0
  -10.0550   16.6190   67.9290 C   0  0  0  0  0  0  0  0  0  0  0  0
  -10.8130   16.8900   69.0840 O   0  0  0  0  0  0  0  0  0  0  0  0
  -11.4840   15.8710   69.7700 C   0  0  0  0  0  0  0  0  0  0  0  0
  -11.4880   14.6180   69.2990 C   0  0  0  0  0  0  0  0  0  0  0  0
  -10.7540   14.2270   68.0480 C   0  0  0  0  0  0  0  0  0  0  0  0
  -12.2570   13.5260   69.9630 C   0  0  0  0  0  0  0  0  0  0  0  0
  -11.4190   12.4020   70.1690 O   0  0  0  0  0  0  0  0  0  0  0  0
  -12.1190   11.2860   70.5360 C   0  0  0  0  0  0  0  0  0  0  0  0
  -11.7280   10.1530   70.3520 O   0  0  0  0  0  0  0  0  0  0  0  0
  -13.2860   11.5940   71.1800 O   0  0  0  0  0  0  0  0  0  0  0  0
  -13.1120   12.6670   72.0580 C   0  0  0  0  0  0  0  0  0  0  0  0
  -12.7490   13.9340   71.3300 C   0  0  0  0  0  0  0  0  0  0  0  0
  -12.7500   15.2200   71.7880 C   0  0  0  0  0  0  0  0  0  0  0  0
  -12.1450   16.2170   70.9490 O   0  0  0  0  0  0  0  0  0  0  0  0
  -14.3310   12.9490   72.7400 O   0  0  0  0  0  0  0  0  0  0  0  0
   -9.2640   17.7940   67.3810 C   0  0  0  0  0  0  0  0  0  0  0  0
   -9.9110   18.7670   66.6050 C   0  0  0  0  0  0  0  0  0  0  0  0
   -9.2340   19.7590   66.0130 N   0  0  0  0  0  0  0  0  0  0  0  0
   -9.9010   20.6410   65.2430 F   0  0  0  0  0  0  0  0  0  0  0  0
   -7.9340   19.9110   66.1550 N   0  0  0  0  0  0  0  0  0  0  0  0
   -7.2440   19.0690   66.9220 C   0  0  0  0  0  0  0  0  0  0  0  0
   -7.8630   17.9800   67.5770 C   0  0  0  0  0  0  0  0  0  0  0  0
   -5.8660   19.2770   67.0820 C   0  0  0  0  0  0  0  0  0  0  0  0
   -7.0240   17.1600   68.3740 C   0  0  0  0  0  0  0  0  0  0  0  0
   -5.6600   17.4260   68.5580 C   0  0  0  0  0  0  0  0  0  0  0  0
   -5.0720   18.4860   67.9090 C   0  0  0  0  0  0  0  0  0  0  0  0
   -4.8810   16.5980   69.4850 C   0  0  0  0  0  0  0  0  0  0  0  0
   -3.7370   18.7560   68.0280 O   0  0  0  0  0  0  0  0  0  0  0  0
   -3.1650   18.4080   69.3170 C   0  0  0  0  0  0  0  0  0  0  0  0
   -3.4820   17.0660   69.8510 C   0  0  0  0  0  0  0  0  0  0  0  0
   -1.8770   18.9030   69.5680 O   0  0  0  0  0  0  0  0  0  0  0  0
   -2.9600   19.4970   70.3420 C   0  0  0  0  0  0  0  0  0  0  0  0
   -2.8250   16.4510   70.6740 O   0  0  0  0  0  0  0  0  0  0  0  0
   -3.6600   20.6710   69.8200 O   0  0  0  0  0  0  0  0  0  0  0  0
   -2.5960   20.8780   70.5650 C   0  0  0  0  0  0  0  0  0  0  0  0
   -2.4890   21.5190   71.5990 O   0  0  0  0  0  0  0  0  0  0  0  0
   -5.4300   15.6410   70.0270 O   0  0  0  0  0  0  0  0  0  0  0  0
   -5.2930   20.3000   66.4310 F   0  0  0  0  0  0  0  0  0  0  0  0
   -9.2760   15.0950   66.2640 O   0  0  0  0  0  0  0  0  0  0  0  0
   -9.8520   14.2690   65.2140 C   0  0  0  0  0  0  0  0  0  0  0  0
  -10.0930   12.9590   65.6950 O   0  0  0  0  0  0  0  0  0  0  0  0
  -10.7870   12.1730   64.7850 C   0  0  0  0  0  0  0  0  0  0  0  0
  -10.4310   10.9070   64.5380 C   0  0  0  0  0  0  0  0  0  0  0  0
  -11.9730   12.7240   64.0660 C   0  0  0  0  0  0  0  0  0  0  0  0
   -9.3420   10.3050   65.1160 O   0  0  0  0  0  0  0  0  0  0  0  0
  -12.2540   14.1590   64.4530 C   0  0  0  0  0  0  0  0  0  0  0  0
  -12.6010   12.1430   63.2030 O   0  0  0  0  0  0  0  0  0  0  0  0
  -11.0720   15.0430   64.7490 C   0  0  0  0  0  0  0  0  0  0  0  0
  -13.3820   14.5710   64.6440 O   0  0  0  0  0  0  0  0  0  0  0  0
  -11.0920   16.2600   64.6210 O   0  0  0  0  0  0  0  0  0  0  0  0
  -13.2750   15.6490   73.1580 C   0  0  0  0  0  0  0  0  0  0  0  0
  -12.4920   16.4790   74.1600 N   0  0  0  0  0  0  0  0  0  0  0  0
  -12.4750   15.4070   74.4250 N   0  0  0  0  0  0  0  0  0  0  0  0
  1 40  1  0  0  0  0
  1  2  2  0  0  0  0
  1  6  1  0  0  0  0
  2  3  1  0  0  0  0
  2 17  1  0  0  0  0
  3  4  1  0  0  0  0
  4  5  2  0  0  0  0
  4 15  1  0  0  0  0
  5  6  1  0  0  0  0
  5  7  1  0  0  0  0
  7  8  1  0  0  0  0
  7 13  1  0  0  0  0
  8  9  1  0  0  0  0
  9 10  2  0  0  0  0
  9 11  1  0  0  0  0
 11 12  1  0  0  0  0
 12 13  1  0  0  0  0
 12 16  1  0  0  0  0
 13 14  2  0  0  0  0
 14 15  1  0  0  0  0
 14 52  1  0  0  0  0
 17 18  2  0  0  0  0
 17 23  1  0  0  0  0
 18 19  1  0  0  0  0
 19 20  1  0  0  0  0
 19 21  2  0  0  0  0
 21 22  1  0  0  0  0
 22 23  2  0  0  0  0
 22 24  1  0  0  0  0
 23 25  1  0  0  0  0
 24 27  2  0  0  0  0
 24 39  1  0  0  0  0
 25 26  2  0  0  0  0
 26 27  1  0  0  0  0
 26 28  1  0  0  0  0
 27 29  1  0  0  0  0
 28 31  1  0  0  0  0
 28 38  2  0  0  0  0
 29 30  1  0  0  0  0
 30 31  1  0  0  0  0
 30 32  1  0  0  0  0
 30 33  1  0  0  0  0
 31 34  2  0  0  0  0
 32 33  1  0  0  0  0
 33 35  1  0  0  0  0
 33 36  1  0  0  0  0
 35 36  1  0  0  0  0
 36 37  2  0  0  0  0
 40 41  1  0  0  0  0
 41 42  1  0  0  0  0
 41 49  1  0  0  0  0
 42 43  1  0  0  0  0
 43 44  2  0  0  0  0
 43 45  1  0  0  0  0
 44 46  1  0  0  0  0
 45 47  1  0  0  0  0
 45 48  2  0  0  0  0
 47 49  1  0  0  0  0
 47 50  2  0  0  0  0
 49 51  2  0  0  0  0
 52 53  1  0  0  0  0
 52 54  1  0  0  0  0
 53 54  3  0  0  0  0
M  CHG  4  15   1  53   1  54   1  19   1
M  END