
 OpenBabel11212021303D

 54 62  0  0  1  0  0  0  0  0999 V2000
  -11.3010   15.8870   67.2410 C   0  0  0  0  0  0  0  0  0  0  0  0
  -10.8090   16.9270   67.9460 C   0  0  0  0  0  0  0  0  0  0  0  0
  -11.0020   17.0800   69.3130 O   0  0  0  0  0  0  0  0  0  0  0  0
  -11.6250   16.0610   70.0230 C   0  0  0  0  0  0  0  0  0  0  0  0
  -12.1100   14.9610   69.4220 C   0  0  0  0  0  0  0  0  0  0  0  0
  -12.0760   14.7940   67.9400 C   0  0  0  0  0  0  0  0  0  0  0  0
  -12.7400   13.8490   70.2300 C   0  0  0  0  0  0  0  0  0  0  0  0
  -12.0000   12.6530   69.9560 O   0  0  0  0  0  0  0  0  0  0  0  0
  -12.1080   11.5910   70.7750 C   0  0  0  0  0  0  0  0  0  0  0  0
  -11.5760   10.4770   70.4330 N   0  0  0  0  0  0  0  0  0  0  0  0
  -12.7470   11.7080   71.9510 O   0  0  0  0  0  0  0  0  0  0  0  0
  -13.3020   12.9320   72.4150 C   0  0  0  0  0  0  0  0  0  0  0  0
  -12.7370   14.0950   71.6980 C   0  0  0  0  0  0  0  0  0  0  0  0
  -12.2590   15.2410   72.2320 C   0  0  0  0  0  0  0  0  0  0  0  0
  -11.7190   16.1990   71.3840 N   0  0  0  0  0  0  0  0  0  0  0  0
  -14.7010   12.9190   72.1860 O   0  0  0  0  0  0  0  0  0  0  0  0
   -9.8610   17.8900   67.3650 C   0  0  0  0  0  0  0  0  0  0  0  0
  -10.4020   18.7880   66.4540 C   0  0  0  0  0  0  0  0  0  0  0  0
   -9.6460   19.7410   65.9130 N   0  0  0  0  0  0  0  0  0  0  0  0
  -10.1990   20.5900   65.0260 F   0  0  0  0  0  0  0  0  0  0  0  0
   -8.3740   19.8950   66.2180 N   0  0  0  0  0  0  0  0  0  0  0  0
   -7.7850   19.0730   67.0980 C   0  0  0  0  0  0  0  0  0  0  0  0
   -8.4970   18.0110   67.6950 C   0  0  0  0  0  0  0  0  0  0  0  0
   -6.4400   19.2680   67.4590 C   0  0  0  0  0  0  0  0  0  0  0  0
   -7.8180   17.1430   68.5820 C   0  0  0  0  0  0  0  0  0  0  0  0
   -6.4740   17.3620   68.9180 C   0  0  0  0  0  0  0  0  0  0  0  0
   -5.7890   16.4670   69.8580 C   0  0  0  0  0  0  0  0  0  0  0  0
   -5.7870   18.4480   68.3920 C   0  0  0  0  0  0  0  0  0  0  0  0
   -6.3220   15.4510   70.2700 O   0  0  0  0  0  0  0  0  0  0  0  0
   -4.3970   16.8660   70.2910 C   0  0  0  0  0  0  0  0  0  0  0  0
   -3.6390   16.0500   70.7930 O   0  0  0  0  0  0  0  0  0  0  0  0
   -4.0700   18.3210   70.0610 C   0  0  0  0  0  0  0  0  0  0  0  0
   -4.5170   18.7870   68.7760 O   0  0  0  0  0  0  0  0  0  0  0  0
   -5.4840   20.7440   66.6960 Br  0  0  0  0  0  0  0  0  0  0  0  0
   -4.5070   19.1960   71.2140 C   0  0  0  0  0  0  0  0  0  0  0  0
   -5.3350   18.5600   72.2080 O   0  0  0  0  0  0  0  0  0  0  0  0
   -3.5080   20.0780   71.7460 O   0  0  0  0  0  0  0  0  0  0  0  0
   -4.5730   20.6420   71.1730 C   0  0  0  0  0  0  0  0  0  0  0  0
   -4.6810   21.4430   70.2560 O   0  0  0  0  0  0  0  0  0  0  0  0
  -10.9950   15.7260   65.8930 O   0  0  0  0  0  0  0  0  0  0  0  0
  -10.6260   14.3920   65.5050 C   0  0  0  0  0  0  0  0  0  0  0  0
  -10.1920   13.6370   66.6310 O   0  0  0  0  0  0  0  0  0  0  0  0
   -9.7570   12.3540   66.3430 C   0  0  0  0  0  0  0  0  0  0  0  0
   -8.7860   11.7930   67.0730 C   0  0  0  0  0  0  0  0  0  0  0  0
  -10.3800   11.5450   65.2540 C   0  0  0  0  0  0  0  0  0  0  0  0
   -8.1490   12.4630   68.0870 O   0  0  0  0  0  0  0  0  0  0  0  0
  -11.4290   12.2880   64.4480 C   0  0  0  0  0  0  0  0  0  0  0  0
  -10.0690   10.3940   64.9960 O   0  0  0  0  0  0  0  0  0  0  0  0
  -11.8020   13.6870   64.8650 C   0  0  0  0  0  0  0  0  0  0  0  0
  -11.8970   11.8160   63.4250 O   0  0  0  0  0  0  0  0  0  0  0  0
  -12.9120   14.1550   64.6650 O   0  0  0  0  0  0  0  0  0  0  0  0
  -12.2650   15.5630   73.6770 C   0  0  0  0  0  0  0  0  0  0  0  0
  -12.0750   16.9050   74.1500 O   0  0  0  0  0  0  0  0  0  0  0  0
  -13.3580   16.2660   74.2940 O   0  0  0  0  0  0  0  0  0  0  0  0
  1 40  1  0  0  0  0
  1  2  2  0  0  0  0
  1  6  1  0  0  0  0
  2  3  1  0  0  0  0
  2 17  1  0  0  0  0
  3  4  1  0  0  0  0
  4  5  2  0  0  0  0
  4 15  1  0  0  0  0
  5  6  1  0  0  0  0
  5  7  1  0  0  0  0
  7  8  1  0  0  0  0
  7 13  1  0  0  0  0
  8  9  1  0  0  0  0
  9 10  2  0  0  0  0
  9 11  1  0  0  0  0
 11 12  1  0  0  0  0
 12 13  1  0  0  0  0
 12 16  1  0  0  0  0
 13 14  2  0  0  0  0
 14 15  1  0  0  0  0
 14 52  1  0  0  0  0
 17 18  2  0  0  0  0
 17 23  1  0  0  0  0
 18 19  1  0  0  0  0
 19 20  1  0  0  0  0
 19 21  2  0  0  0  0
 21 22  1  0  0  0  0
 22 23  2  0  0  0  0
 22 24  1  0  0  0  0
 23 25  1  0  0  0  0
 24 28  2  0  0  0  0
 24 34  1  0  0  0  0
 25 26  2  0  0  0  0
 26 27  1  0  0  0  0
 26 28  1  0  0  0  0
 27 29  2  0  0  0  0
 27 30  1  0  0  0  0
 28 33  1  0  0  0  0
 30 31  2  0  0  0  0
 30 32  1  0  0  0  0
 32 33  1  0  0  0  0
 32 35  1  0  0  0  0
 35 36  1  0  0  0  0
 35 37  1  0  0  0  0
 35 38  1  0  0  0  0
 37 38  1  0  0  0  0
 38 39  2  0  0  0  0
 40 41  1  0  0  0  0
 41 42  1  0  0  0  0
 41 49  1  0  0  0  0
 42 43  1  0  0  0  0
 43 44  2  0  0  0  0
 43 45  1  0  0  0  0
 44 46  1  0  0  0  0
 45 47  1  0  0  0  0
 45 48  2  0  0  0  0
 47 49  1  0  0  0  0
 47 50  2  0  0  0  0
 49 51  2  0  0  0  0
 52 53  1  0  0  0  0
 52 54  1  0  0  0  0
 53 54  1  0  0  0  0
M  CHG  1  19   1
M  END