
 OpenBabel11212023383D

 54 62  0  0  1  0  0  0  0  0999 V2000
  -10.7550   15.5310   67.3080 C   0  0  0  0  0  0  0  0  0  0  0  0
  -10.4500   16.6330   68.0330 C   0  0  0  0  0  0  0  0  0  0  0  0
  -10.6190   16.6330   69.4260 O   0  0  0  0  0  0  0  0  0  0  0  0
  -11.4150   15.6620   70.0330 C   0  0  0  0  0  0  0  0  0  0  0  0
  -11.6760   14.5040   69.3990 C   0  0  0  0  0  0  0  0  0  0  0  0
  -11.1870   14.2530   67.9990 C   0  0  0  0  0  0  0  0  0  0  0  0
  -12.5080   13.4200   70.0320 C   0  0  0  0  0  0  0  0  0  0  0  0
  -11.6970   12.2780   70.1940 O   0  0  0  0  0  0  0  0  0  0  0  0
  -12.2340   11.2230   70.8720 C   0  0  0  0  0  0  0  0  0  0  0  0
  -11.7330   10.1140   70.7870 O   0  0  0  0  0  0  0  0  0  0  0  0
  -13.3390   11.4690   71.6270 O   0  0  0  0  0  0  0  0  0  0  0  0
  -13.6870   12.7120   72.0000 C   0  0  0  0  0  0  0  0  0  0  0  0
  -14.6020   12.9540   72.7720 O   0  0  0  0  0  0  0  0  0  0  0  0
  -12.9520   13.8070   71.3770 C   0  0  0  0  0  0  0  0  0  0  0  0
  -12.7020   15.0000   71.9580 C   0  0  0  0  0  0  0  0  0  0  0  0
  -11.9180   15.9350   71.2930 O   0  0  0  0  0  0  0  0  0  0  0  0
   -9.9090   17.9240   67.4610 C   0  0  0  0  0  0  0  0  0  0  0  0
  -10.6090   18.5960   66.4540 C   0  0  0  0  0  0  0  0  0  0  0  0
  -10.1440   19.7270   65.9110 N   0  0  0  0  0  0  0  0  0  0  0  0
  -10.8710   20.3420   64.9570 F   0  0  0  0  0  0  0  0  0  0  0  0
   -8.9840   20.2580   66.2520 N   0  0  0  0  0  0  0  0  0  0  0  0
   -8.2310   19.6670   67.1820 C   0  0  0  0  0  0  0  0  0  0  0  0
   -8.6620   18.4940   67.8360 C   0  0  0  0  0  0  0  0  0  0  0  0
   -6.9800   20.2140   67.5180 C   0  0  0  0  0  0  0  0  0  0  0  0
   -7.7990   17.9520   68.8110 C   0  0  0  0  0  0  0  0  0  0  0  0
   -6.5230   18.4610   69.0490 C   0  0  0  0  0  0  0  0  0  0  0  0
   -5.6000   17.6790   69.8740 C   0  0  0  0  0  0  0  0  0  0  0  0
   -6.1130   19.6290   68.4460 C   0  0  0  0  0  0  0  0  0  0  0  0
   -5.9360   16.5710   70.2780 O   0  0  0  0  0  0  0  0  0  0  0  0
   -4.2240   18.2810   70.0730 C   0  0  0  0  0  0  0  0  0  0  0  0
   -3.2820   17.5710   70.3830 O   0  0  0  0  0  0  0  0  0  0  0  0
   -4.1820   19.7820   69.8600 C   0  0  0  0  0  0  0  0  0  0  0  0
   -4.9110   20.2260   68.6960 O   0  0  0  0  0  0  0  0  0  0  0  0
   -6.5900   21.3390   66.8980 F   0  0  0  0  0  0  0  0  0  0  0  0
   -4.6650   20.4870   71.0870 C   0  0  0  0  0  0  0  0  0  0  0  0
   -6.1080   20.5870   71.2500 O   0  0  0  0  0  0  0  0  0  0  0  0
   -3.9360   20.1970   72.2680 O   0  0  0  0  0  0  0  0  0  0  0  0
   -3.8830   21.4720   71.8390 C   0  0  0  0  0  0  0  0  0  0  0  0
   -4.2870   22.4840   72.3720 O   0  0  0  0  0  0  0  0  0  0  0  0
  -10.6160   15.5370   65.9390 O   0  0  0  0  0  0  0  0  0  0  0  0
  -10.4140   14.3080   65.2070 C   0  0  0  0  0  0  0  0  0  0  0  0
  -10.2110   13.1810   66.0510 O   0  0  0  0  0  0  0  0  0  0  0  0
   -9.9120   12.0530   65.3010 C   0  0  0  0  0  0  0  0  0  0  0  0
   -8.8440   11.2970   65.5790 C   0  0  0  0  0  0  0  0  0  0  0  0
  -10.7760   11.6790   64.1400 C   0  0  0  0  0  0  0  0  0  0  0  0
   -7.9460   11.5960   66.5770 O   0  0  0  0  0  0  0  0  0  0  0  0
  -11.8040   12.7410   63.7870 C   0  0  0  0  0  0  0  0  0  0  0  0
  -10.6460   10.6550   63.4970 O   0  0  0  0  0  0  0  0  0  0  0  0
  -11.7030   14.1090   64.4300 C   0  0  0  0  0  0  0  0  0  0  0  0
  -12.7050   12.5140   62.9950 O   0  0  0  0  0  0  0  0  0  0  0  0
  -12.5990   14.9450   64.3510 O   0  0  0  0  0  0  0  0  0  0  0  0
  -13.1430   15.3940   73.3190 C   0  0  0  0  0  0  0  0  0  0  0  0
  -12.3060   15.1510   74.4560 O   0  0  0  0  0  0  0  0  0  0  0  0
  -12.5020   16.4980   73.9870 O   0  0  0  0  0  0  0  0  0  0  0  0
  1 40  1  0  0  0  0
  1  2  2  0  0  0  0
  1  6  1  0  0  0  0
  2  3  1  0  0  0  0
  2 17  1  0  0  0  0
  3  4  1  0  0  0  0
  4  5  2  0  0  0  0
  4 16  1  0  0  0  0
  5  6  1  0  0  0  0
  5  7  1  0  0  0  0
  7  8  1  0  0  0  0
  7 14  1  0  0  0  0
  8  9  1  0  0  0  0
  9 10  2  0  0  0  0
  9 11  1  0  0  0  0
 11 12  1  0  0  0  0
 12 13  2  0  0  0  0
 12 14  1  0  0  0  0
 14 15  2  0  0  0  0
 15 16  1  0  0  0  0
 15 52  1  0  0  0  0
 17 18  2  0  0  0  0
 17 23  1  0  0  0  0
 18 19  1  0  0  0  0
 19 20  1  0  0  0  0
 19 21  2  0  0  0  0
 21 22  1  0  0  0  0
 22 23  2  0  0  0  0
 22 24  1  0  0  0  0
 23 25  1  0  0  0  0
 24 28  2  0  0  0  0
 24 34  1  0  0  0  0
 25 26  2  0  0  0  0
 26 27  1  0  0  0  0
 26 28  1  0  0  0  0
 27 29  2  0  0  0  0
 27 30  1  0  0  0  0
 28 33  1  0  0  0  0
 30 31  2  0  0  0  0
 30 32  1  0  0  0  0
 32 33  1  0  0  0  0
 32 35  1  0  0  0  0
 35 36  1  0  0  0  0
 35 37  1  0  0  0  0
 35 38  1  0  0  0  0
 37 38  1  0  0  0  0
 38 39  2  0  0  0  0
 40 41  1  0  0  0  0
 41 42  1  0  0  0  0
 41 49  1  0  0  0  0
 42 43  1  0  0  0  0
 43 44  2  0  0  0  0
 43 45  1  0  0  0  0
 44 46  1  0  0  0  0
 45 47  1  0  0  0  0
 45 48  2  0  0  0  0
 47 49  1  0  0  0  0
 47 50  2  0  0  0  0
 49 51  2  0  0  0  0
 52 53  1  0  0  0  0
 52 54  1  0  0  0  0
 53 54  1  0  0  0  0
M  CHG  2  16   1  19   1
M  END