
 OpenBabel10192015393D

 52 60  0  0  1  0  0  0  0  0999 V2000
  -10.6450   15.6690   67.3350 C   0  0  0  0  0  0  0  0  0  0  0  0
  -10.5560   16.8080   68.0630 C   0  0  0  0  0  0  0  0  0  0  0  0
  -10.9630   16.8820   69.4010 O   0  0  0  0  0  0  0  0  0  0  0  0
  -11.4990   15.7570   70.0220 C   0  0  0  0  0  0  0  0  0  0  0  0
  -11.5650   14.5720   69.3950 C   0  0  0  0  0  0  0  0  0  0  0  0
  -11.1290   14.3880   67.9860 C   0  0  0  0  0  0  0  0  0  0  0  0
  -12.1610   13.4060   70.1160 C   0  0  0  0  0  0  0  0  0  0  0  0
  -12.2340   12.2460   69.5470 N   0  0  0  0  0  0  0  0  0  0  0  0
  -12.8100   11.1940   70.2300 C   0  0  0  0  0  0  0  0  0  0  0  0
  -12.8880   10.1130   69.6580 O   0  0  0  0  0  0  0  0  0  0  0  0
  -13.3090   11.2970   71.5140 N   0  0  0  0  0  0  0  0  0  0  0  0
  -13.2460   12.4370   72.1090 C   0  0  0  0  0  0  0  0  0  0  0  0
  -12.6780   13.6350   71.4870 C   0  0  0  0  0  0  0  0  0  0  0  0
  -12.5890   14.8740   72.0030 C   0  0  0  0  0  0  0  0  0  0  0  0
  -11.9880   15.9040   71.2970 N   0  0  0  0  0  0  0  0  0  0  0  0
   -9.9470   18.0670   67.5640 C   0  0  0  0  0  0  0  0  0  0  0  0
  -10.7300   18.7280   66.6800 N   0  0  0  0  0  0  0  0  0  0  0  0
  -10.2200   19.8410   66.1450 C   0  0  0  0  0  0  0  0  0  0  0  0
   -9.0030   20.3430   66.3800 N   0  0  0  0  0  0  0  0  0  0  0  0
   -8.2320   19.6810   67.2400 C   0  0  0  0  0  0  0  0  0  0  0  0
   -8.6470   18.5070   67.8960 C   0  0  0  0  0  0  0  0  0  0  0  0
   -6.9530   20.1800   67.4690 C   0  0  0  0  0  0  0  0  0  0  0  0
   -7.7400   17.8700   68.7810 C   0  0  0  0  0  0  0  0  0  0  0  0
   -6.4440   18.3770   68.9550 C   0  0  0  0  0  0  0  0  0  0  0  0
   -6.0500   19.5450   68.3210 C   0  0  0  0  0  0  0  0  0  0  0  0
   -5.4650   17.6350   69.7510 C   0  0  0  0  0  0  0  0  0  0  0  0
   -4.8200   20.1240   68.4290 O   0  0  0  0  0  0  0  0  0  0  0  0
   -3.9410   19.6360   69.4500 C   0  0  0  0  0  0  0  0  0  0  0  0
   -4.0490   18.1590   69.7350 C   0  0  0  0  0  0  0  0  0  0  0  0
   -3.1070   17.4490   70.0520 O   0  0  0  0  0  0  0  0  0  0  0  0
   -5.7600   16.6450   70.3990 O   0  0  0  0  0  0  0  0  0  0  0  0
   -4.0630   20.4620   70.6970 C   0  0  0  0  0  0  0  0  0  0  0  0
   -5.0840   21.4890   70.6820 O   0  0  0  0  0  0  0  0  0  0  0  0
   -3.9390   19.7290   71.9170 O   0  0  0  0  0  0  0  0  0  0  0  0
   -2.9900   20.6590   71.6760 C   0  0  0  0  0  0  0  0  0  0  0  0
   -2.6860   21.6300   72.3290 O   0  0  0  0  0  0  0  0  0  0  0  0
  -10.2360   15.6210   66.0030 O   0  0  0  0  0  0  0  0  0  0  0  0
  -10.1510   14.3130   65.4200 C   0  0  0  0  0  0  0  0  0  0  0  0
   -9.8620   13.3320   66.4180 O   0  0  0  0  0  0  0  0  0  0  0  0
   -9.5540   12.0940   65.8850 C   0  0  0  0  0  0  0  0  0  0  0  0
   -8.5110   11.3910   66.3410 C   0  0  0  0  0  0  0  0  0  0  0  0
  -10.3870   11.5220   64.7910 C   0  0  0  0  0  0  0  0  0  0  0  0
   -7.6730   11.8680   67.3180 O   0  0  0  0  0  0  0  0  0  0  0  0
  -11.4200   12.4870   64.2360 C   0  0  0  0  0  0  0  0  0  0  0  0
  -10.2430   10.3980   64.3400 O   0  0  0  0  0  0  0  0  0  0  0  0
  -11.4500   13.9160   64.7360 C   0  0  0  0  0  0  0  0  0  0  0  0
  -12.1890   12.1290   63.3580 O   0  0  0  0  0  0  0  0  0  0  0  0
  -12.4220   14.6310   64.5470 O   0  0  0  0  0  0  0  0  0  0  0  0
  -13.1360   15.1910   73.3570 C   0  0  0  0  0  0  0  0  0  0  0  0
  -12.2870   14.8490   74.4600 O   0  0  0  0  0  0  0  0  0  0  0  0
  -12.4060   16.1780   74.9720 C   0  0  0  0  0  0  0  0  0  0  0  0
  -13.0420   16.5700   73.7540 O   0  0  0  0  0  0  0  0  0  0  0  0
  1 37  1  0  0  0  0
  1  2  2  0  0  0  0
  1  6  1  0  0  0  0
  2  3  1  0  0  0  0
  2 16  1  0  0  0  0
  3  4  1  0  0  0  0
  4  5  2  0  0  0  0
  4 15  1  0  0  0  0
  5  6  1  0  0  0  0
  5  7  1  0  0  0  0
  7  8  2  0  0  0  0
  7 13  1  0  0  0  0
  8  9  1  0  0  0  0
  9 10  2  0  0  0  0
  9 11  1  0  0  0  0
 11 12  2  0  0  0  0
 12 13  1  0  0  0  0
 13 14  2  0  0  0  0
 14 15  1  0  0  0  0
 14 49  1  0  0  0  0
 16 17  2  0  0  0  0
 16 21  1  0  0  0  0
 17 18  1  0  0  0  0
 18 19  2  0  0  0  0
 19 20  1  0  0  0  0
 20 21  2  0  0  0  0
 20 22  1  0  0  0  0
 21 23  1  0  0  0  0
 22 25  2  0  0  0  0
 23 24  2  0  0  0  0
 24 25  1  0  0  0  0
 24 26  1  0  0  0  0
 25 27  1  0  0  0  0
 26 29  1  0  0  0  0
 26 31  2  0  0  0  0
 27 28  1  0  0  0  0
 28 29  1  0  0  0  0
 28 32  1  0  0  0  0
 29 30  2  0  0  0  0
 32 33  1  0  0  0  0
 32 34  1  0  0  0  0
 32 35  1  0  0  0  0
 34 35  1  0  0  0  0
 35 36  2  0  0  0  0
 37 38  1  0  0  0  0
 38 39  1  0  0  0  0
 38 46  1  0  0  0  0
 39 40  1  0  0  0  0
 40 41  2  0  0  0  0
 40 42  1  0  0  0  0
 41 43  1  0  0  0  0
 42 44  1  0  0  0  0
 42 45  2  0  0  0  0
 44 46  1  0  0  0  0
 44 47  2  0  0  0  0
 46 48  2  0  0  0  0
 49 50  1  0  0  0  0
 49 52  1  0  0  0  0
 50 51  1  0  0  0  0
 51 52  1  0  0  0  0
M  END
