
 OpenBabel09262018353D

 50 58  0  0  1  0  0  0  0  0999 V2000
  -10.5650   15.8100   67.4140 C   0  0  0  0  0  0  0  0  0  0  0  0
  -10.5440   16.9770   68.1080 C   0  0  0  0  0  0  0  0  0  0  0  0
  -11.0920   17.0830   69.3950 O   0  0  0  0  0  0  0  0  0  0  0  0
  -11.6460   15.9640   70.0090 C   0  0  0  0  0  0  0  0  0  0  0  0
  -11.6160   14.7620   69.4170 C   0  0  0  0  0  0  0  0  0  0  0  0
  -11.0760   14.5450   68.0510 C   0  0  0  0  0  0  0  0  0  0  0  0
  -12.1490   13.5900   70.1600 C   0  0  0  0  0  0  0  0  0  0  0  0
  -12.1320   12.4150   69.6230 N   0  0  0  0  0  0  0  0  0  0  0  0
  -12.6190   11.3370   70.3360 C   0  0  0  0  0  0  0  0  0  0  0  0
  -12.6310   10.2400   69.7880 O   0  0  0  0  0  0  0  0  0  0  0  0
  -13.0770   11.4330   71.6330 N   0  0  0  0  0  0  0  0  0  0  0  0
  -13.1070   12.5990   72.1970 C   0  0  0  0  0  0  0  0  0  0  0  0
  -12.6760   13.8240   71.5210 C   0  0  0  0  0  0  0  0  0  0  0  0
  -12.7170   15.0780   72.0180 C   0  0  0  0  0  0  0  0  0  0  0  0
  -12.2140   16.1250   71.2520 N   0  0  0  0  0  0  0  0  0  0  0  0
   -9.8530   18.2090   67.6070 C   0  0  0  0  0  0  0  0  0  0  0  0
  -10.6190   18.9460   66.7670 N   0  0  0  0  0  0  0  0  0  0  0  0
  -10.1150   20.0820   66.2920 C   0  0  0  0  0  0  0  0  0  0  0  0
   -8.8860   20.5390   66.5280 N   0  0  0  0  0  0  0  0  0  0  0  0
   -8.1080   19.7930   67.3080 C   0  0  0  0  0  0  0  0  0  0  0  0
   -8.5230   18.5850   67.9040 C   0  0  0  0  0  0  0  0  0  0  0  0
   -6.8170   20.2590   67.5200 C   0  0  0  0  0  0  0  0  0  0  0  0
   -7.5800   17.8880   68.7100 C   0  0  0  0  0  0  0  0  0  0  0  0
   -6.2720   18.3710   68.8810 C   0  0  0  0  0  0  0  0  0  0  0  0
   -5.8920   19.5640   68.2970 C   0  0  0  0  0  0  0  0  0  0  0  0
   -5.2800   17.5780   69.6100 C   0  0  0  0  0  0  0  0  0  0  0  0
   -4.6490   20.1120   68.3650 O   0  0  0  0  0  0  0  0  0  0  0  0
   -3.7710   19.6270   69.3780 C   0  0  0  0  0  0  0  0  0  0  0  0
   -3.9210   18.1940   69.8430 C   0  0  0  0  0  0  0  0  0  0  0  0
   -3.0450   17.5620   70.4210 O   0  0  0  0  0  0  0  0  0  0  0  0
   -5.5320   16.4420   69.9870 O   0  0  0  0  0  0  0  0  0  0  0  0
   -3.7930   20.5810   70.5470 C   0  0  0  0  0  0  0  0  0  0  0  0
   -2.5120   21.1410   71.1180 C   0  0  0  0  0  0  0  0  0  0  0  0
   -3.2300   20.0790   71.7620 O   0  0  0  0  0  0  0  0  0  0  0  0
   -4.9670   21.3870   70.7060 O   0  0  0  0  0  0  0  0  0  0  0  0
  -10.0310   15.7120   66.1340 O   0  0  0  0  0  0  0  0  0  0  0  0
  -10.0080   14.4190   65.5030 C   0  0  0  0  0  0  0  0  0  0  0  0
   -9.9620   13.3550   66.4780 O   0  0  0  0  0  0  0  0  0  0  0  0
   -9.9740   12.1120   65.8560 C   0  0  0  0  0  0  0  0  0  0  0  0
   -8.9580   11.2540   66.0150 C   0  0  0  0  0  0  0  0  0  0  0  0
  -11.1880   11.8290   65.0110 C   0  0  0  0  0  0  0  0  0  0  0  0
   -7.8170   11.4720   66.7410 N   0  0  0  0  0  0  0  0  0  0  0  0
  -11.2540   12.9090   63.9150 C   0  0  0  0  0  0  0  0  0  0  0  0
  -12.3450   11.9280   65.8600 O   0  0  0  0  0  0  0  0  0  0  0  0
  -11.2390   14.3060   64.5610 C   0  0  0  0  0  0  0  0  0  0  0  0
  -12.4310   12.7540   63.1130 O   0  0  0  0  0  0  0  0  0  0  0  0
  -12.4980   14.5190   65.2350 O   0  0  0  0  0  0  0  0  0  0  0  0
  -13.2760   15.4590   73.3370 C   0  0  0  0  0  0  0  0  0  0  0  0
  -12.4010   15.4330   74.5680 C   0  0  0  0  0  0  0  0  0  0  0  0
  -12.8620   16.6650   74.0070 O   0  0  0  0  0  0  0  0  0  0  0  0
  1 36  1  0  0  0  0
  1  2  2  0  0  0  0
  1  6  1  0  0  0  0
  2  3  1  0  0  0  0
  2 16  1  0  0  0  0
  3  4  1  0  0  0  0
  4  5  2  0  0  0  0
  4 15  1  0  0  0  0
  5  6  1  0  0  0  0
  5  7  1  0  0  0  0
  7  8  2  0  0  0  0
  7 13  1  0  0  0  0
  8  9  1  0  0  0  0
  9 10  2  0  0  0  0
  9 11  1  0  0  0  0
 11 12  2  0  0  0  0
 12 13  1  0  0  0  0
 13 14  2  0  0  0  0
 14 15  1  0  0  0  0
 14 48  1  0  0  0  0
 16 17  2  0  0  0  0
 16 21  1  0  0  0  0
 17 18  1  0  0  0  0
 18 19  2  0  0  0  0
 19 20  1  0  0  0  0
 20 21  2  0  0  0  0
 20 22  1  0  0  0  0
 21 23  1  0  0  0  0
 22 25  2  0  0  0  0
 23 24  2  0  0  0  0
 24 25  1  0  0  0  0
 24 26  1  0  0  0  0
 25 27  1  0  0  0  0
 26 29  1  0  0  0  0
 26 31  2  0  0  0  0
 27 28  1  0  0  0  0
 28 29  1  0  0  0  0
 28 32  1  0  0  0  0
 29 30  2  0  0  0  0
 32 33  1  0  0  0  0
 32 34  1  0  0  0  0
 32 35  1  0  0  0  0
 33 34  1  0  0  0  0
 36 37  1  0  0  0  0
 37 38  1  0  0  0  0
 37 45  1  0  0  0  0
 38 39  1  0  0  0  0
 39 40  2  0  0  0  0
 39 41  1  0  0  0  0
 40 42  1  0  0  0  0
 41 43  1  0  0  0  0
 41 44  1  0  0  0  0
 43 45  1  0  0  0  0
 43 46  1  0  0  0  0
 45 47  1  0  0  0  0
 48 49  1  0  0  0  0
 48 50  1  0  0  0  0
 49 50  1  0  0  0  0
M  END
