
 OpenBabel10202001463D

 51 59  0  0  1  0  0  0  0  0999 V2000
   -9.9450   15.8640   67.9560 C   0  0  0  0  0  0  0  0  0  0  0  0
  -10.0130   17.0620   68.5920 C   0  0  0  0  0  0  0  0  0  0  0  0
  -10.6370   17.2290   69.8310 O   0  0  0  0  0  0  0  0  0  0  0  0
  -11.2810   16.1610   70.4330 C   0  0  0  0  0  0  0  0  0  0  0  0
  -11.2750   14.9390   69.8830 C   0  0  0  0  0  0  0  0  0  0  0  0
  -10.5770   14.6450   68.6040 C   0  0  0  0  0  0  0  0  0  0  0  0
  -12.0180   13.8470   70.5810 C   0  0  0  0  0  0  0  0  0  0  0  0
  -12.0760   12.6560   70.0810 N   0  0  0  0  0  0  0  0  0  0  0  0
  -12.7910   11.6790   70.7520 C   0  0  0  0  0  0  0  0  0  0  0  0
  -12.8600   10.5660   70.2450 O   0  0  0  0  0  0  0  0  0  0  0  0
  -13.4330   11.8930   71.9570 N   0  0  0  0  0  0  0  0  0  0  0  0
  -13.3820   13.0670   72.4830 C   0  0  0  0  0  0  0  0  0  0  0  0
  -12.6840   14.1890   71.8580 C   0  0  0  0  0  0  0  0  0  0  0  0
  -12.6200   15.4480   72.3350 C   0  0  0  0  0  0  0  0  0  0  0  0
  -11.9360   16.4100   71.6090 N   0  0  0  0  0  0  0  0  0  0  0  0
   -9.4440   18.3340   68.0890 C   0  0  0  0  0  0  0  0  0  0  0  0
  -10.3480   19.1440   67.4900 N   0  0  0  0  0  0  0  0  0  0  0  0
   -9.8740   20.2990   67.0100 C   0  0  0  0  0  0  0  0  0  0  0  0
   -8.5920   20.6810   66.9920 N   0  0  0  0  0  0  0  0  0  0  0  0
   -7.7140   19.8740   67.5840 C   0  0  0  0  0  0  0  0  0  0  0  0
   -8.0780   18.6600   68.1940 C   0  0  0  0  0  0  0  0  0  0  0  0
   -6.3980   20.3080   67.6510 C   0  0  0  0  0  0  0  0  0  0  0  0
   -7.0860   17.9110   68.8770 C   0  0  0  0  0  0  0  0  0  0  0  0
   -5.7890   18.4190   69.0030 C   0  0  0  0  0  0  0  0  0  0  0  0
   -5.4500   19.6270   68.4080 C   0  0  0  0  0  0  0  0  0  0  0  0
   -4.7870   17.7370   69.8330 C   0  0  0  0  0  0  0  0  0  0  0  0
   -4.2430   20.2520   68.5660 O   0  0  0  0  0  0  0  0  0  0  0  0
   -3.5460   19.9460   69.7860 C   0  0  0  0  0  0  0  0  0  0  0  0
   -3.4700   18.4590   70.0280 C   0  0  0  0  0  0  0  0  0  0  0  0
   -2.4670   17.8600   70.3880 O   0  0  0  0  0  0  0  0  0  0  0  0
   -5.0120   16.6630   70.3680 O   0  0  0  0  0  0  0  0  0  0  0  0
   -4.1370   20.6790   70.9640 C   0  0  0  0  0  0  0  0  0  0  0  0
   -5.4260   21.3030   70.7740 O   0  0  0  0  0  0  0  0  0  0  0  0
   -3.9960   20.0270   72.2320 O   0  0  0  0  0  0  0  0  0  0  0  0
   -3.3100   21.1640   72.0550 C   0  0  0  0  0  0  0  0  0  0  0  0
   -2.1190   21.3960   72.1630 O   0  0  0  0  0  0  0  0  0  0  0  0
   -9.3180   15.7210   66.7130 O   0  0  0  0  0  0  0  0  0  0  0  0
   -9.3430   14.4240   66.0660 C   0  0  0  0  0  0  0  0  0  0  0  0
  -10.6830   14.0670   65.7380 O   0  0  0  0  0  0  0  0  0  0  0  0
  -11.0940   12.7530   65.7050 C   0  0  0  0  0  0  0  0  0  0  0  0
  -12.3550   12.4650   65.3570 C   0  0  0  0  0  0  0  0  0  0  0  0
  -10.2310   11.6060   66.0870 C   0  0  0  0  0  0  0  0  0  0  0  0
  -13.2820   13.3950   64.9610 O   0  0  0  0  0  0  0  0  0  0  0  0
   -8.8340   11.9880   66.4920 C   0  0  0  0  0  0  0  0  0  0  0  0
  -10.5930   10.4410   66.0890 O   0  0  0  0  0  0  0  0  0  0  0  0
   -8.5460   13.4090   66.8850 C   0  0  0  0  0  0  0  0  0  0  0  0
   -7.9330   11.1630   66.4650 O   0  0  0  0  0  0  0  0  0  0  0  0
   -7.6790   13.6620   67.7100 O   0  0  0  0  0  0  0  0  0  0  0  0
  -13.2350   15.9120   73.5990 C   0  0  0  0  0  0  0  0  0  0  0  0
  -12.6510   15.6110   74.8760 O   0  0  0  0  0  0  0  0  0  0  0  0
  -12.6440   16.9650   74.3820 O   0  0  0  0  0  0  0  0  0  0  0  0
  1 37  1  0  0  0  0
  1  2  2  0  0  0  0
  1  6  1  0  0  0  0
  2  3  1  0  0  0  0
  2 16  1  0  0  0  0
  3  4  1  0  0  0  0
  4  5  2  0  0  0  0
  4 15  1  0  0  0  0
  5  6  1  0  0  0  0
  5  7  1  0  0  0  0
  7  8  2  0  0  0  0
  7 13  1  0  0  0  0
  8  9  1  0  0  0  0
  9 10  2  0  0  0  0
  9 11  1  0  0  0  0
 11 12  2  0  0  0  0
 12 13  1  0  0  0  0
 13 14  2  0  0  0  0
 14 15  1  0  0  0  0
 14 49  1  0  0  0  0
 16 17  2  0  0  0  0
 16 21  1  0  0  0  0
 17 18  1  0  0  0  0
 18 19  2  0  0  0  0
 19 20  1  0  0  0  0
 20 21  2  0  0  0  0
 20 22  1  0  0  0  0
 21 23  1  0  0  0  0
 22 25  2  0  0  0  0
 23 24  2  0  0  0  0
 24 25  1  0  0  0  0
 24 26  1  0  0  0  0
 25 27  1  0  0  0  0
 26 29  1  0  0  0  0
 26 31  2  0  0  0  0
 27 28  1  0  0  0  0
 28 29  1  0  0  0  0
 28 32  1  0  0  0  0
 29 30  2  0  0  0  0
 32 33  1  0  0  0  0
 32 34  1  0  0  0  0
 32 35  1  0  0  0  0
 34 35  1  0  0  0  0
 35 36  2  0  0  0  0
 37 38  1  0  0  0  0
 38 39  1  0  0  0  0
 38 46  1  0  0  0  0
 39 40  1  0  0  0  0
 40 41  2  0  0  0  0
 40 42  1  0  0  0  0
 41 43  1  0  0  0  0
 42 44  1  0  0  0  0
 42 45  2  0  0  0  0
 44 46  1  0  0  0  0
 44 47  2  0  0  0  0
 46 48  2  0  0  0  0
 49 50  1  0  0  0  0
 49 51  1  0  0  0  0
 50 51  1  0  0  0  0
M  END
