
 OpenBabel11172005063D

 52 60  0  0  1  0  0  0  0  0999 V2000
  -10.8140   15.8340   67.1660 C   0  0  0  0  0  0  0  0  0  0  0  0
  -10.6960   16.9480   67.9150 C   0  0  0  0  0  0  0  0  0  0  0  0
  -11.2290   17.0730   69.1870 O   0  0  0  0  0  0  0  0  0  0  0  0
  -11.8320   15.9800   69.7760 C   0  0  0  0  0  0  0  0  0  0  0  0
  -11.9770   14.8040   69.1400 C   0  0  0  0  0  0  0  0  0  0  0  0
  -11.5210   14.6170   67.7200 C   0  0  0  0  0  0  0  0  0  0  0  0
  -12.6310   13.6400   69.8510 C   0  0  0  0  0  0  0  0  0  0  0  0
  -11.7400   12.5360   69.8150 O   0  0  0  0  0  0  0  0  0  0  0  0
  -12.1110   11.4120   70.4800 C   0  0  0  0  0  0  0  0  0  0  0  0
  -11.6120   10.3290   70.2040 O   0  0  0  0  0  0  0  0  0  0  0  0
  -13.0710   11.5290   71.4320 O   0  0  0  0  0  0  0  0  0  0  0  0
  -13.4260   12.7160   71.9570 C   0  0  0  0  0  0  0  0  0  0  0  0
  -14.1870   12.7950   72.9140 O   0  0  0  0  0  0  0  0  0  0  0  0
  -12.9350   13.9020   71.2750 C   0  0  0  0  0  0  0  0  0  0  0  0
  -12.7760   15.1120   71.8510 C   0  0  0  0  0  0  0  0  0  0  0  0
  -12.2760   16.1410   71.0650 N   0  0  0  0  0  0  0  0  0  0  0  0
   -9.9660   18.1470   67.4810 C   0  0  0  0  0  0  0  0  0  0  0  0
  -10.6250   19.0730   66.6890 C   0  0  0  0  0  0  0  0  0  0  0  0
  -10.0500   20.2180   66.2860 N   0  0  0  0  0  0  0  0  0  0  0  0
   -8.7690   20.4960   66.6740 N   0  0  0  0  0  0  0  0  0  0  0  0
   -8.0740   19.6420   67.4410 C   0  0  0  0  0  0  0  0  0  0  0  0
   -8.6370   18.4270   67.8740 C   0  0  0  0  0  0  0  0  0  0  0  0
   -6.7730   19.9640   67.8200 C   0  0  0  0  0  0  0  0  0  0  0  0
   -7.8490   17.5660   68.6730 C   0  0  0  0  0  0  0  0  0  0  0  0
   -6.5410   17.9120   69.0360 C   0  0  0  0  0  0  0  0  0  0  0  0
   -6.0000   19.1180   68.6190 C   0  0  0  0  0  0  0  0  0  0  0  0
   -5.7310   16.9800   69.8250 C   0  0  0  0  0  0  0  0  0  0  0  0
   -4.7380   19.5500   68.8980 O   0  0  0  0  0  0  0  0  0  0  0  0
   -4.0220   18.8720   69.9300 C   0  0  0  0  0  0  0  0  0  0  0  0
   -4.3290   17.4110   70.1770 C   0  0  0  0  0  0  0  0  0  0  0  0
   -3.5350   16.6190   70.6690 O   0  0  0  0  0  0  0  0  0  0  0  0
   -6.1580   15.8870   70.1620 O   0  0  0  0  0  0  0  0  0  0  0  0
   -4.1200   19.6480   71.2050 C   0  0  0  0  0  0  0  0  0  0  0  0
   -5.0900   19.1760   72.1750 O   0  0  0  0  0  0  0  0  0  0  0  0
   -2.8720   20.0920   71.7370 O   0  0  0  0  0  0  0  0  0  0  0  0
   -3.7240   21.0470   71.3310 C   0  0  0  0  0  0  0  0  0  0  0  0
   -4.2290   21.9550   71.9580 O   0  0  0  0  0  0  0  0  0  0  0  0
  -10.1950   15.7550   65.9290 O   0  0  0  0  0  0  0  0  0  0  0  0
  -10.0370   14.4560   65.3380 C   0  0  0  0  0  0  0  0  0  0  0  0
   -9.6610   13.4900   66.3150 O   0  0  0  0  0  0  0  0  0  0  0  0
   -9.6330   12.1990   65.8210 C   0  0  0  0  0  0  0  0  0  0  0  0
   -8.6010   11.3790   66.0480 C   0  0  0  0  0  0  0  0  0  0  0  0
  -10.7900   11.6840   65.0460 C   0  0  0  0  0  0  0  0  0  0  0  0
   -7.4760   11.7640   66.7280 O   0  0  0  0  0  0  0  0  0  0  0  0
  -11.8310   12.7460   64.7880 C   0  0  0  0  0  0  0  0  0  0  0  0
  -10.8860   10.5530   64.6010 O   0  0  0  0  0  0  0  0  0  0  0  0
  -11.3660   14.1720   64.6420 C   0  0  0  0  0  0  0  0  0  0  0  0
  -13.0130   12.4570   64.7090 O   0  0  0  0  0  0  0  0  0  0  0  0
  -11.9890   14.9620   63.9460 O   0  0  0  0  0  0  0  0  0  0  0  0
  -13.0540   15.4450   73.2680 C   0  0  0  0  0  0  0  0  0  0  0  0
  -12.1600   15.0490   74.3210 O   0  0  0  0  0  0  0  0  0  0  0  0
  -12.2880   16.4420   73.9730 O   0  0  0  0  0  0  0  0  0  0  0  0
  1 38  1  0  0  0  0
  1  2  2  0  0  0  0
  1  6  1  0  0  0  0
  2  3  1  0  0  0  0
  2 17  1  0  0  0  0
  3  4  1  0  0  0  0
  4  5  2  0  0  0  0
  4 16  1  0  0  0  0
  5  6  1  0  0  0  0
  5  7  1  0  0  0  0
  7  8  1  0  0  0  0
  7 14  1  0  0  0  0
  8  9  1  0  0  0  0
  9 10  2  0  0  0  0
  9 11  1  0  0  0  0
 11 12  1  0  0  0  0
 12 13  2  0  0  0  0
 12 14  1  0  0  0  0
 14 15  2  0  0  0  0
 15 16  1  0  0  0  0
 15 50  1  0  0  0  0
 17 18  2  0  0  0  0
 17 22  1  0  0  0  0
 18 19  1  0  0  0  0
 19 20  2  0  0  0  0
 20 21  1  0  0  0  0
 21 22  2  0  0  0  0
 21 23  1  0  0  0  0
 22 24  1  0  0  0  0
 23 26  2  0  0  0  0
 24 25  2  0  0  0  0
 25 26  1  0  0  0  0
 25 27  1  0  0  0  0
 26 28  1  0  0  0  0
 27 30  1  0  0  0  0
 27 32  2  0  0  0  0
 28 29  1  0  0  0  0
 29 30  1  0  0  0  0
 29 33  1  0  0  0  0
 30 31  2  0  0  0  0
 33 34  1  0  0  0  0
 33 35  1  0  0  0  0
 33 36  1  0  0  0  0
 35 36  1  0  0  0  0
 36 37  2  0  0  0  0
 38 39  1  0  0  0  0
 39 40  1  0  0  0  0
 39 47  1  0  0  0  0
 40 41  1  0  0  0  0
 41 42  2  0  0  0  0
 41 43  1  0  0  0  0
 42 44  1  0  0  0  0
 43 45  1  0  0  0  0
 43 46  2  0  0  0  0
 45 47  1  0  0  0  0
 45 48  2  0  0  0  0
 47 49  2  0  0  0  0
 50 51  1  0  0  0  0
 50 52  1  0  0  0  0
 51 52  1  0  0  0  0
M  END
