
 OpenBabel11212022333D

 54 62  0  0  1  0  0  0  0  0999 V2000
  -10.7520   15.6950   67.5120 C   0  0  0  0  0  0  0  0  0  0  0  0
  -10.3840   16.8130   68.1780 C   0  0  0  0  0  0  0  0  0  0  0  0
  -10.7110   17.0520   69.5190 O   0  0  0  0  0  0  0  0  0  0  0  0
  -11.4770   16.1060   70.2220 C   0  0  0  0  0  0  0  0  0  0  0  0
  -11.8340   14.9410   69.6470 C   0  0  0  0  0  0  0  0  0  0  0  0
  -11.5000   14.5990   68.2220 C   0  0  0  0  0  0  0  0  0  0  0  0
  -12.6730   13.9200   70.3600 C   0  0  0  0  0  0  0  0  0  0  0  0
  -11.9190   12.7300   70.4910 O   0  0  0  0  0  0  0  0  0  0  0  0
  -12.5940   11.6820   71.0450 C   0  0  0  0  0  0  0  0  0  0  0  0
  -12.2190   10.5300   70.9100 O   0  0  0  0  0  0  0  0  0  0  0  0
  -13.7310   12.0210   71.7060 O   0  0  0  0  0  0  0  0  0  0  0  0
  -13.7920   13.2590   72.4080 C   0  0  0  0  0  0  0  0  0  0  0  0
  -13.0070   14.3330   71.7370 C   0  0  0  0  0  0  0  0  0  0  0  0
  -12.6310   15.5200   72.2640 C   0  0  0  0  0  0  0  0  0  0  0  0
  -11.8690   16.4100   71.5140 O   0  0  0  0  0  0  0  0  0  0  0  0
  -15.1260   13.7280   72.3740 O   0  0  0  0  0  0  0  0  0  0  0  0
   -9.6120   17.8860   67.5050 C   0  0  0  0  0  0  0  0  0  0  0  0
  -10.2820   18.7790   66.6690 C   0  0  0  0  0  0  0  0  0  0  0  0
   -9.6430   19.8320   66.1440 N   0  0  0  0  0  0  0  0  0  0  0  0
  -10.3110   20.6660   65.3230 F   0  0  0  0  0  0  0  0  0  0  0  0
   -8.3830   20.1100   66.4230 N   0  0  0  0  0  0  0  0  0  0  0  0
   -7.6950   19.3200   67.2550 C   0  0  0  0  0  0  0  0  0  0  0  0
   -8.2560   18.1480   67.7950 C   0  0  0  0  0  0  0  0  0  0  0  0
   -6.4050   19.6870   67.6440 C   0  0  0  0  0  0  0  0  0  0  0  0
   -7.4470   17.3300   68.6190 C   0  0  0  0  0  0  0  0  0  0  0  0
   -6.1540   17.7280   68.9810 C   0  0  0  0  0  0  0  0  0  0  0  0
   -5.3200   16.8640   69.8250 C   0  0  0  0  0  0  0  0  0  0  0  0
   -5.6460   18.9400   68.5490 C   0  0  0  0  0  0  0  0  0  0  0  0
   -5.7310   15.7850   70.2180 O   0  0  0  0  0  0  0  0  0  0  0  0
   -3.9340   17.3800   70.1290 C   0  0  0  0  0  0  0  0  0  0  0  0
   -3.0040   16.6070   70.2950 O   0  0  0  0  0  0  0  0  0  0  0  0
   -3.8450   18.8850   70.1340 C   0  0  0  0  0  0  0  0  0  0  0  0
   -4.4520   19.4620   68.9580 O   0  0  0  0  0  0  0  0  0  0  0  0
   -5.8930   20.8290   67.1580 F   0  0  0  0  0  0  0  0  0  0  0  0
   -4.4170   19.4740   71.3920 C   0  0  0  0  0  0  0  0  0  0  0  0
   -5.4340   18.7080   72.0860 O   0  0  0  0  0  0  0  0  0  0  0  0
   -3.3520   20.0750   72.3360 O   0  0  0  0  0  0  0  0  0  0  0  0
   -4.2560   20.8180   71.7520 C   0  0  0  0  0  0  0  0  0  0  0  0
   -4.6520   22.0050   71.6740 N   0  0  0  0  0  0  0  0  0  0  0  0
  -10.3990   15.5100   66.1770 O   0  0  0  0  0  0  0  0  0  0  0  0
   -9.4210   14.4730   65.8590 C   0  0  0  0  0  0  0  0  0  0  0  0
   -8.4080   14.4600   66.8420 O   0  0  0  0  0  0  0  0  0  0  0  0
   -7.9260   13.2450   67.2690 C   0  0  0  0  0  0  0  0  0  0  0  0
   -6.6540   13.1050   67.6650 C   0  0  0  0  0  0  0  0  0  0  0  0
   -8.8180   12.0760   67.4410 C   0  0  0  0  0  0  0  0  0  0  0  0
   -5.7400   14.1230   67.5910 O   0  0  0  0  0  0  0  0  0  0  0  0
  -10.0290   12.0890   66.5460 C   0  0  0  0  0  0  0  0  0  0  0  0
   -8.6490   11.2230   68.2990 O   0  0  0  0  0  0  0  0  0  0  0  0
  -10.2610   13.2310   65.5960 C   0  0  0  0  0  0  0  0  0  0  0  0
  -10.8570   11.1940   66.6270 O   0  0  0  0  0  0  0  0  0  0  0  0
  -11.1130   13.1650   64.7200 O   0  0  0  0  0  0  0  0  0  0  0  0
  -12.9810   15.9410   73.6420 C   0  0  0  0  0  0  0  0  0  0  0  0
  -12.2360   15.4640   74.7700 O   0  0  0  0  0  0  0  0  0  0  0  0
  -12.1330   16.8450   74.3720 O   0  0  0  0  0  0  0  0  0  0  0  0
  1 40  1  0  0  0  0
  1  2  2  0  0  0  0
  1  6  1  0  0  0  0
  2  3  1  0  0  0  0
  2 17  1  0  0  0  0
  3  4  1  0  0  0  0
  4  5  2  0  0  0  0
  4 15  1  0  0  0  0
  5  6  1  0  0  0  0
  5  7  1  0  0  0  0
  7  8  1  0  0  0  0
  7 13  1  0  0  0  0
  8  9  1  0  0  0  0
  9 10  2  0  0  0  0
  9 11  1  0  0  0  0
 11 12  1  0  0  0  0
 12 13  1  0  0  0  0
 12 16  1  0  0  0  0
 13 14  2  0  0  0  0
 14 15  1  0  0  0  0
 14 52  1  0  0  0  0
 17 18  2  0  0  0  0
 17 23  1  0  0  0  0
 18 19  1  0  0  0  0
 19 20  1  0  0  0  0
 19 21  2  0  0  0  0
 21 22  1  0  0  0  0
 22 23  2  0  0  0  0
 22 24  1  0  0  0  0
 23 25  1  0  0  0  0
 24 28  2  0  0  0  0
 24 34  1  0  0  0  0
 25 26  2  0  0  0  0
 26 27  1  0  0  0  0
 26 28  1  0  0  0  0
 27 29  2  0  0  0  0
 27 30  1  0  0  0  0
 28 33  1  0  0  0  0
 30 31  2  0  0  0  0
 30 32  1  0  0  0  0
 32 33  1  0  0  0  0
 32 35  1  0  0  0  0
 35 36  1  0  0  0  0
 35 37  1  0  0  0  0
 35 38  1  0  0  0  0
 37 38  1  0  0  0  0
 38 39  2  0  0  0  0
 40 41  1  0  0  0  0
 41 42  1  0  0  0  0
 41 49  1  0  0  0  0
 42 43  1  0  0  0  0
 43 44  2  0  0  0  0
 43 45  1  0  0  0  0
 44 46  1  0  0  0  0
 45 47  1  0  0  0  0
 45 48  2  0  0  0  0
 47 49  1  0  0  0  0
 47 50  2  0  0  0  0
 49 51  2  0  0  0  0
 52 53  1  0  0  0  0
 52 54  1  0  0  0  0
 53 54  1  0  0  0  0
M  CHG  2  15   1  19   1
M  END