
 OpenBabel11252011363D

 54 62  0  0  1  0  0  0  0  0999 V2000
  -10.9780   15.6850   67.2820 C   0  0  0  0  0  0  0  0  0  0  0  0
  -10.4890   16.7560   67.9540 C   0  0  0  0  0  0  0  0  0  0  0  0
  -10.6610   16.8770   69.3470 O   0  0  0  0  0  0  0  0  0  0  0  0
  -11.2950   15.8710   70.0860 C   0  0  0  0  0  0  0  0  0  0  0  0
  -11.7890   14.7800   69.4790 C   0  0  0  0  0  0  0  0  0  0  0  0
  -11.6830   14.5680   68.0090 C   0  0  0  0  0  0  0  0  0  0  0  0
  -12.5470   13.7160   70.2130 C   0  0  0  0  0  0  0  0  0  0  0  0
  -11.8350   12.5000   70.1130 O   0  0  0  0  0  0  0  0  0  0  0  0
  -12.4660   11.4200   70.6510 C   0  0  0  0  0  0  0  0  0  0  0  0
  -12.1990   10.2820   70.3030 O   0  0  0  0  0  0  0  0  0  0  0  0
  -13.4310   11.7080   71.5610 O   0  0  0  0  0  0  0  0  0  0  0  0
  -13.3970   12.9100   72.3270 C   0  0  0  0  0  0  0  0  0  0  0  0
  -12.6490   14.0060   71.6540 C   0  0  0  0  0  0  0  0  0  0  0  0
  -12.1180   15.1110   72.2230 C   0  0  0  0  0  0  0  0  0  0  0  0
  -11.4190   16.0360   71.4530 O   0  0  0  0  0  0  0  0  0  0  0  0
  -14.7180   13.4030   72.4370 O   0  0  0  0  0  0  0  0  0  0  0  0
   -9.7490   17.9000   67.2990 C   0  0  0  0  0  0  0  0  0  0  0  0
  -10.4550   18.7680   66.4600 C   0  0  0  0  0  0  0  0  0  0  0  0
   -9.8560   19.7930   65.8450 N   0  0  0  0  0  0  0  0  0  0  0  0
  -10.5810   20.5700   65.0180 F   0  0  0  0  0  0  0  0  0  0  0  0
   -8.5870   20.0890   66.0300 N   0  0  0  0  0  0  0  0  0  0  0  0
   -7.8500   19.3530   66.8600 C   0  0  0  0  0  0  0  0  0  0  0  0
   -8.3730   18.2130   67.5130 C   0  0  0  0  0  0  0  0  0  0  0  0
   -6.5310   19.7510   67.1100 C   0  0  0  0  0  0  0  0  0  0  0  0
   -7.4830   17.4960   68.3520 C   0  0  0  0  0  0  0  0  0  0  0  0
   -6.1950   17.9670   68.6440 C   0  0  0  0  0  0  0  0  0  0  0  0
   -5.4140   17.3280   69.7070 C   0  0  0  0  0  0  0  0  0  0  0  0
   -5.7100   19.1090   68.0370 C   0  0  0  0  0  0  0  0  0  0  0  0
   -5.8950   16.4190   70.3680 O   0  0  0  0  0  0  0  0  0  0  0  0
   -4.0600   17.9340   69.9950 C   0  0  0  0  0  0  0  0  0  0  0  0
   -3.1670   17.2480   70.4620 O   0  0  0  0  0  0  0  0  0  0  0  0
   -3.9720   19.4070   69.6590 C   0  0  0  0  0  0  0  0  0  0  0  0
   -4.5180   19.6980   68.3540 O   0  0  0  0  0  0  0  0  0  0  0  0
   -6.0700   20.8570   66.5020 F   0  0  0  0  0  0  0  0  0  0  0  0
   -4.5560   20.2710   70.7570 C   0  0  0  0  0  0  0  0  0  0  0  0
   -5.8260   20.8840   70.4720 O   0  0  0  0  0  0  0  0  0  0  0  0
   -4.4020   19.7710   72.0960 O   0  0  0  0  0  0  0  0  0  0  0  0
   -3.7820   20.9150   71.8020 C   0  0  0  0  0  0  0  0  0  0  0  0
   -2.6170   21.2720   71.8640 O   0  0  0  0  0  0  0  0  0  0  0  0
  -10.8020   15.5220   65.9080 O   0  0  0  0  0  0  0  0  0  0  0  0
  -10.3880   14.1960   65.4760 C   0  0  0  0  0  0  0  0  0  0  0  0
  -10.2780   13.3200   66.6020 O   0  0  0  0  0  0  0  0  0  0  0  0
   -9.8450   12.0510   66.2610 C   0  0  0  0  0  0  0  0  0  0  0  0
   -9.0140   11.3720   67.0600 C   0  0  0  0  0  0  0  0  0  0  0  0
  -10.2920   11.4040   64.9860 C   0  0  0  0  0  0  0  0  0  0  0  0
   -8.5140   11.8830   68.2330 O   0  0  0  0  0  0  0  0  0  0  0  0
  -10.8940   12.3080   63.9140 C   0  0  0  0  0  0  0  0  0  0  0  0
  -10.1190   10.2040   64.7710 O   0  0  0  0  0  0  0  0  0  0  0  0
  -11.4020   13.6410   64.4690 C   0  0  0  0  0  0  0  0  0  0  0  0
  -11.9610   11.6670   63.2220 O   0  0  0  0  0  0  0  0  0  0  0  0
  -12.7050   13.4790   65.0700 O   0  0  0  0  0  0  0  0  0  0  0  0
  -12.2400   15.4090   73.6690 C   0  0  0  0  0  0  0  0  0  0  0  0
  -12.0180   16.7320   74.1700 O   0  0  0  0  0  0  0  0  0  0  0  0
  -13.3480   16.1750   74.1680 O   0  0  0  0  0  0  0  0  0  0  0  0
  1 40  1  0  0  0  0
  1  2  2  0  0  0  0
  1  6  1  0  0  0  0
  2  3  1  0  0  0  0
  2 17  1  0  0  0  0
  3  4  1  0  0  0  0
  4  5  2  0  0  0  0
  4 15  1  0  0  0  0
  5  6  1  0  0  0  0
  5  7  1  0  0  0  0
  7  8  1  0  0  0  0
  7 13  1  0  0  0  0
  8  9  1  0  0  0  0
  9 10  2  0  0  0  0
  9 11  1  0  0  0  0
 11 12  1  0  0  0  0
 12 13  1  0  0  0  0
 12 16  1  0  0  0  0
 13 14  2  0  0  0  0
 14 15  1  0  0  0  0
 14 52  1  0  0  0  0
 17 18  2  0  0  0  0
 17 23  1  0  0  0  0
 18 19  1  0  0  0  0
 19 20  1  0  0  0  0
 19 21  2  0  0  0  0
 21 22  1  0  0  0  0
 22 23  2  0  0  0  0
 22 24  1  0  0  0  0
 23 25  1  0  0  0  0
 24 28  2  0  0  0  0
 24 34  1  0  0  0  0
 25 26  2  0  0  0  0
 26 27  1  0  0  0  0
 26 28  1  0  0  0  0
 27 29  2  0  0  0  0
 27 30  1  0  0  0  0
 28 33  1  0  0  0  0
 30 31  2  0  0  0  0
 30 32  1  0  0  0  0
 32 33  1  0  0  0  0
 32 35  1  0  0  0  0
 35 36  1  0  0  0  0
 35 37  1  0  0  0  0
 35 38  1  0  0  0  0
 37 38  1  0  0  0  0
 38 39  2  0  0  0  0
 40 41  1  0  0  0  0
 41 42  1  0  0  0  0
 41 49  1  0  0  0  0
 42 43  1  0  0  0  0
 43 44  2  0  0  0  0
 43 45  1  0  0  0  0
 44 46  1  0  0  0  0
 45 47  1  0  0  0  0
 45 48  2  0  0  0  0
 47 49  1  0  0  0  0
 47 50  1  0  0  0  0
 49 51  1  0  0  0  0
 52 53  1  0  0  0  0
 52 54  1  0  0  0  0
 53 54  1  0  0  0  0
M  CHG  2  15   1  19   1
M  END