
 OpenBabel11262012093D

 53 61  0  0  1  0  0  0  0  0999 V2000
  -11.1050   15.7700   66.9440 C   0  0  0  0  0  0  0  0  0  0  0  0
  -10.7520   16.8050   67.7380 C   0  0  0  0  0  0  0  0  0  0  0  0
  -11.0760   16.8770   69.0900 O   0  0  0  0  0  0  0  0  0  0  0  0
  -11.6440   15.7690   69.7050 C   0  0  0  0  0  0  0  0  0  0  0  0
  -11.9460   14.6520   69.0230 C   0  0  0  0  0  0  0  0  0  0  0  0
  -11.8250   14.5880   67.5430 C   0  0  0  0  0  0  0  0  0  0  0  0
  -12.5240   13.4520   69.7210 C   0  0  0  0  0  0  0  0  0  0  0  0
  -11.6160   12.3480   69.5760 N   0  0  0  0  0  0  0  0  0  0  0  0
  -11.7580   11.2000   70.2760 C   0  0  0  0  0  0  0  0  0  0  0  0
  -11.1880   10.1760   69.9210 O   0  0  0  0  0  0  0  0  0  0  0  0
  -12.5290   11.2590   71.3850 N   0  0  0  0  0  0  0  0  0  0  0  0
  -13.2920   12.4000   71.8270 C   0  0  0  0  0  0  0  0  0  0  0  0
  -12.7470   13.6400   71.1940 C   0  0  0  0  0  0  0  0  0  0  0  0
  -12.4440   14.8080   71.8040 C   0  0  0  0  0  0  0  0  0  0  0  0
  -11.9060   15.8440   71.0480 N   0  0  0  0  0  0  0  0  0  0  0  0
   -9.8500   17.8700   67.2840 C   0  0  0  0  0  0  0  0  0  0  0  0
  -10.3870   18.7900   66.3900 C   0  0  0  0  0  0  0  0  0  0  0  0
   -9.6650   19.8300   65.9680 N   0  0  0  0  0  0  0  0  0  0  0  0
  -10.2140   20.6970   65.0980 F   0  0  0  0  0  0  0  0  0  0  0  0
   -8.4280   20.0460   66.3760 N   0  0  0  0  0  0  0  0  0  0  0  0
   -7.8550   19.1930   67.2330 C   0  0  0  0  0  0  0  0  0  0  0  0
   -8.5230   18.0520   67.7160 C   0  0  0  0  0  0  0  0  0  0  0  0
   -6.5550   19.4410   67.6730 C   0  0  0  0  0  0  0  0  0  0  0  0
   -7.8350   17.1770   68.5910 C   0  0  0  0  0  0  0  0  0  0  0  0
   -6.5230   17.4570   69.0040 C   0  0  0  0  0  0  0  0  0  0  0  0
   -5.8130   16.5450   69.9060 C   0  0  0  0  0  0  0  0  0  0  0  0
   -5.8860   18.6060   68.5700 C   0  0  0  0  0  0  0  0  0  0  0  0
   -6.2940   15.4700   70.2190 O   0  0  0  0  0  0  0  0  0  0  0  0
   -4.4590   16.9950   70.4080 C   0  0  0  0  0  0  0  0  0  0  0  0
   -3.6850   16.1930   70.9090 O   0  0  0  0  0  0  0  0  0  0  0  0
   -4.1870   18.4730   70.2450 C   0  0  0  0  0  0  0  0  0  0  0  0
   -4.6480   19.0040   68.9900 O   0  0  0  0  0  0  0  0  0  0  0  0
   -5.9340   20.5520   67.2390 F   0  0  0  0  0  0  0  0  0  0  0  0
   -4.6510   19.2730   71.4410 C   0  0  0  0  0  0  0  0  0  0  0  0
   -5.5990   18.6240   72.3090 O   0  0  0  0  0  0  0  0  0  0  0  0
   -3.6330   20.0170   72.1290 O   0  0  0  0  0  0  0  0  0  0  0  0
   -4.5980   20.7190   71.5270 C   0  0  0  0  0  0  0  0  0  0  0  0
   -4.5550   21.5990   70.6820 O   0  0  0  0  0  0  0  0  0  0  0  0
  -10.6870   15.6870   65.6170 O   0  0  0  0  0  0  0  0  0  0  0  0
  -10.4900   14.3540   65.1070 C   0  0  0  0  0  0  0  0  0  0  0  0
  -10.2230   13.4540   66.1720 O   0  0  0  0  0  0  0  0  0  0  0  0
   -9.8980   12.1870   65.7210 C   0  0  0  0  0  0  0  0  0  0  0  0
   -8.9810   11.4470   66.3480 C   0  0  0  0  0  0  0  0  0  0  0  0
  -10.5580   11.5980   64.5170 C   0  0  0  0  0  0  0  0  0  0  0  0
   -8.3150   11.9080   67.4220 F   0  0  0  0  0  0  0  0  0  0  0  0
  -11.5750   12.4470   63.7850 C   0  0  0  0  0  0  0  0  0  0  0  0
  -10.2620   10.4680   64.1310 O   0  0  0  0  0  0  0  0  0  0  0  0
  -11.6740   13.8770   64.2660 C   0  0  0  0  0  0  0  0  0  0  0  0
  -12.7970   11.8420   63.7780 F   0  0  0  0  0  0  0  0  0  0  0  0
  -12.5640   14.6410   63.8850 O   0  0  0  0  0  0  0  0  0  0  0  0
  -12.6300   15.0840   73.2480 C   0  0  0  0  0  0  0  0  0  0  0  0
  -12.1340   16.2840   73.8560 O   0  0  0  0  0  0  0  0  0  0  0  0
  -13.5540   16.0870   73.7120 O   0  0  0  0  0  0  0  0  0  0  0  0
  1 39  1  0  0  0  0
  1  2  2  0  0  0  0
  1  6  1  0  0  0  0
  2  3  1  0  0  0  0
  2 16  1  0  0  0  0
  3  4  1  0  0  0  0
  4  5  2  0  0  0  0
  4 15  1  0  0  0  0
  5  6  1  0  0  0  0
  5  7  1  0  0  0  0
  7  8  1  0  0  0  0
  7 13  1  0  0  0  0
  8  9  1  0  0  0  0
  9 10  2  0  0  0  0
  9 11  1  0  0  0  0
 11 12  1  0  0  0  0
 12 13  1  0  0  0  0
 13 14  2  0  0  0  0
 14 15  1  0  0  0  0
 14 51  1  0  0  0  0
 16 17  2  0  0  0  0
 16 22  1  0  0  0  0
 17 18  1  0  0  0  0
 18 19  1  0  0  0  0
 18 20  2  0  0  0  0
 20 21  1  0  0  0  0
 21 22  2  0  0  0  0
 21 23  1  0  0  0  0
 22 24  1  0  0  0  0
 23 27  2  0  0  0  0
 23 33  1  0  0  0  0
 24 25  2  0  0  0  0
 25 26  1  0  0  0  0
 25 27  1  0  0  0  0
 26 28  2  0  0  0  0
 26 29  1  0  0  0  0
 27 32  1  0  0  0  0
 29 30  2  0  0  0  0
 29 31  1  0  0  0  0
 31 32  1  0  0  0  0
 31 34  1  0  0  0  0
 34 35  1  0  0  0  0
 34 36  1  0  0  0  0
 34 37  1  0  0  0  0
 36 37  1  0  0  0  0
 37 38  2  0  0  0  0
 39 40  1  0  0  0  0
 40 41  1  0  0  0  0
 40 48  1  0  0  0  0
 41 42  1  0  0  0  0
 42 43  2  0  0  0  0
 42 44  1  0  0  0  0
 43 45  1  0  0  0  0
 44 46  1  0  0  0  0
 44 47  2  0  0  0  0
 46 48  1  0  0  0  0
 46 49  1  0  0  0  0
 48 50  2  0  0  0  0
 51 52  1  0  0  0  0
 51 53  1  0  0  0  0
 52 53  1  0  0  0  0
M  CHG  1  18   1
M  END