
 OpenBabel11272001423D

 54 62  0  0  1  0  0  0  0  0999 V2000
  -10.7890   15.7130   67.0060 C   0  0  0  0  0  0  0  0  0  0  0  0
  -10.5900   16.8910   67.6590 C   0  0  0  0  0  0  0  0  0  0  0  0
  -11.0070   17.0610   69.0020 O   0  0  0  0  0  0  0  0  0  0  0  0
  -11.6260   16.0210   69.6930 C   0  0  0  0  0  0  0  0  0  0  0  0
  -11.8320   14.8320   69.1090 C   0  0  0  0  0  0  0  0  0  0  0  0
  -11.4480   14.5630   67.7060 C   0  0  0  0  0  0  0  0  0  0  0  0
  -12.5250   13.6950   69.7860 C   0  0  0  0  0  0  0  0  0  0  0  0
  -11.6340   12.6030   69.7940 O   0  0  0  0  0  0  0  0  0  0  0  0
  -12.0700   11.4730   70.4060 C   0  0  0  0  0  0  0  0  0  0  0  0
  -11.5770   10.3910   70.1360 O   0  0  0  0  0  0  0  0  0  0  0  0
  -13.0580   11.6240   71.3270 O   0  0  0  0  0  0  0  0  0  0  0  0
  -13.3880   12.8260   71.8390 C   0  0  0  0  0  0  0  0  0  0  0  0
  -14.1490   12.9550   72.7850 O   0  0  0  0  0  0  0  0  0  0  0  0
  -12.8260   14.0060   71.1830 C   0  0  0  0  0  0  0  0  0  0  0  0
  -12.6130   15.2190   71.7460 C   0  0  0  0  0  0  0  0  0  0  0  0
  -12.0310   16.2440   70.9910 O   0  0  0  0  0  0  0  0  0  0  0  0
   -9.8830   18.1100   67.1270 C   0  0  0  0  0  0  0  0  0  0  0  0
  -10.6330   18.8190   66.2410 N   0  0  0  0  0  0  0  0  0  0  0  0
  -10.1080   19.9630   65.7440 C   0  0  0  0  0  0  0  0  0  0  0  0
  -10.8430   20.6380   64.8490 F   0  0  0  0  0  0  0  0  0  0  0  0
   -8.8730   20.4730   66.0920 C   0  0  0  0  0  0  0  0  0  0  0  0
   -8.0800   19.7480   66.9850 C   0  0  0  0  0  0  0  0  0  0  0  0
   -8.5600   18.5090   67.4670 C   0  0  0  0  0  0  0  0  0  0  0  0
   -6.8100   20.2190   67.3980 C   0  0  0  0  0  0  0  0  0  0  0  0
   -7.6600   17.7420   68.2250 C   0  0  0  0  0  0  0  0  0  0  0  0
   -6.4250   18.2390   68.6540 C   0  0  0  0  0  0  0  0  0  0  0  0
   -5.5800   17.3930   69.5000 C   0  0  0  0  0  0  0  0  0  0  0  0
   -6.0000   19.4970   68.2770 C   0  0  0  0  0  0  0  0  0  0  0  0
   -5.8990   16.2410   69.7720 O   0  0  0  0  0  0  0  0  0  0  0  0
   -4.2990   18.0090   70.0030 C   0  0  0  0  0  0  0  0  0  0  0  0
   -3.4150   17.2990   70.4560 O   0  0  0  0  0  0  0  0  0  0  0  0
   -4.2380   19.5190   69.8840 C   0  0  0  0  0  0  0  0  0  0  0  0
   -4.8130   20.0470   68.6760 O   0  0  0  0  0  0  0  0  0  0  0  0
   -6.3680   21.4000   66.9340 F   0  0  0  0  0  0  0  0  0  0  0  0
   -4.8280   20.1950   71.0790 C   0  0  0  0  0  0  0  0  0  0  0  0
   -6.2620   20.2850   71.1180 O   0  0  0  0  0  0  0  0  0  0  0  0
   -4.1650   19.9420   72.3130 O   0  0  0  0  0  0  0  0  0  0  0  0
   -4.1490   21.2240   71.8720 C   0  0  0  0  0  0  0  0  0  0  0  0
   -4.6040   22.2120   72.3880 O   0  0  0  0  0  0  0  0  0  0  0  0
  -10.3660   15.4650   65.7010 O   0  0  0  0  0  0  0  0  0  0  0  0
  -10.2560   14.0750   65.2830 C   0  0  0  0  0  0  0  0  0  0  0  0
  -10.0120   13.2030   66.3950 O   0  0  0  0  0  0  0  0  0  0  0  0
   -9.6990   11.9060   66.0450 C   0  0  0  0  0  0  0  0  0  0  0  0
   -8.7460   11.2240   66.6860 C   0  0  0  0  0  0  0  0  0  0  0  0
  -10.4310   11.2250   64.9500 C   0  0  0  0  0  0  0  0  0  0  0  0
   -8.0000   11.7890   67.6560 F   0  0  0  0  0  0  0  0  0  0  0  0
  -11.4780   12.0970   64.2840 C   0  0  0  0  0  0  0  0  0  0  0  0
  -10.1580   10.1060   64.5540 O   0  0  0  0  0  0  0  0  0  0  0  0
  -11.5080   13.5800   64.5820 C   0  0  0  0  0  0  0  0  0  0  0  0
  -12.2360   11.6270   63.4500 O   0  0  0  0  0  0  0  0  0  0  0  0
  -12.4470   14.2810   64.2410 O   0  0  0  0  0  0  0  0  0  0  0  0
  -12.9620   15.5720   73.1450 C   0  0  0  0  0  0  0  0  0  0  0  0
  -12.0820   15.2010   74.2220 O   0  0  0  0  0  0  0  0  0  0  0  0
  -12.2270   16.5830   73.8500 O   0  0  0  0  0  0  0  0  0  0  0  0
  1 40  1  0  0  0  0
  1  2  2  0  0  0  0
  1  6  1  0  0  0  0
  2  3  1  0  0  0  0
  2 17  1  0  0  0  0
  3  4  1  0  0  0  0
  4  5  2  0  0  0  0
  4 16  1  0  0  0  0
  5  6  1  0  0  0  0
  5  7  1  0  0  0  0
  7  8  1  0  0  0  0
  7 14  1  0  0  0  0
  8  9  1  0  0  0  0
  9 10  2  0  0  0  0
  9 11  1  0  0  0  0
 11 12  1  0  0  0  0
 12 13  2  0  0  0  0
 12 14  1  0  0  0  0
 14 15  2  0  0  0  0
 15 16  1  0  0  0  0
 15 52  1  0  0  0  0
 17 18  2  0  0  0  0
 17 23  1  0  0  0  0
 18 19  1  0  0  0  0
 19 20  1  0  0  0  0
 19 21  2  0  0  0  0
 21 22  1  0  0  0  0
 22 23  2  0  0  0  0
 22 24  1  0  0  0  0
 23 25  1  0  0  0  0
 24 28  2  0  0  0  0
 24 34  1  0  0  0  0
 25 26  2  0  0  0  0
 26 27  1  0  0  0  0
 26 28  1  0  0  0  0
 27 29  2  0  0  0  0
 27 30  1  0  0  0  0
 28 33  1  0  0  0  0
 30 31  2  0  0  0  0
 30 32  1  0  0  0  0
 32 33  1  0  0  0  0
 32 35  1  0  0  0  0
 35 36  1  0  0  0  0
 35 37  1  0  0  0  0
 35 38  1  0  0  0  0
 37 38  1  0  0  0  0
 38 39  2  0  0  0  0
 40 41  1  0  0  0  0
 41 42  1  0  0  0  0
 41 49  1  0  0  0  0
 42 43  1  0  0  0  0
 43 44  2  0  0  0  0
 43 45  1  0  0  0  0
 44 46  1  0  0  0  0
 45 47  1  0  0  0  0
 45 48  2  0  0  0  0
 47 49  1  0  0  0  0
 47 50  2  0  0  0  0
 49 51  2  0  0  0  0
 52 53  1  0  0  0  0
 52 54  1  0  0  0  0
 53 54  1  0  0  0  0
M  CHG  1  16   1
M  END