
 OpenBabel09212023263D

 52 61  0  0  1  0  0  0  0  0999 V2000
  -11.7100    9.3750   69.6150 O   0  0  0  0  0  0  0  0  0  0  0  0
  -11.9850   10.4890   70.0480 C   0  0  0  0  0  0  0  0  0  0  0  0
  -12.7880   10.6470   71.1210 N   0  0  0  0  0  0  0  0  0  0  0  0
  -13.0930   11.9040   71.7500 C   0  0  0  0  0  0  0  0  0  0  0  0
  -12.5750   13.1070   71.0220 C   0  0  0  0  0  0  0  0  0  0  0  0
  -11.7720   12.9220   69.8860 C   0  0  0  0  0  0  0  0  0  0  0  0
  -11.5020   11.6140   69.4620 N   0  0  0  0  0  0  0  0  0  0  0  0
  -11.2440   14.0150   69.1950 C   0  0  0  0  0  0  0  0  0  0  0  0
  -10.3620   13.8750   67.9870 C   0  0  0  0  0  0  0  0  0  0  0  0
   -9.9030   15.1920   67.4300 C   0  0  0  0  0  0  0  0  0  0  0  0
  -10.3020   16.3510   67.9850 C   0  0  0  0  0  0  0  0  0  0  0  0
  -11.1040   16.4340   69.1070 O   0  0  0  0  0  0  0  0  0  0  0  0
  -11.5610   15.2730   69.6840 C   0  0  0  0  0  0  0  0  0  0  0  0
  -12.3340   15.4750   70.7710 N   0  0  0  0  0  0  0  0  0  0  0  0
  -12.8380   14.4140   71.4580 C   0  0  0  0  0  0  0  0  0  0  0  0
   -9.8880   17.6560   67.4360 C   0  0  0  0  0  0  0  0  0  0  0  0
  -10.8300   18.2370   66.6520 N   0  0  0  0  0  0  0  0  0  0  0  0
  -10.5680   19.4820   66.2000 C   0  0  0  0  0  0  0  0  0  0  0  0
   -9.4280   20.1970   66.5280 C   0  0  0  0  0  0  0  0  0  0  0  0
   -8.4660   19.5990   67.3520 C   0  0  0  0  0  0  0  0  0  0  0  0
   -8.6670   18.2750   67.7960 C   0  0  0  0  0  0  0  0  0  0  0  0
   -7.3160   20.3100   67.7520 C   0  0  0  0  0  0  0  0  0  0  0  0
   -7.6460   17.6720   68.5680 C   0  0  0  0  0  0  0  0  0  0  0  0
   -6.4980   18.3900   68.9290 C   0  0  0  0  0  0  0  0  0  0  0  0
   -6.3480   19.7200   68.5650 C   0  0  0  0  0  0  0  0  0  0  0  0
   -5.4300   17.7270   69.6810 C   0  0  0  0  0  0  0  0  0  0  0  0
   -5.3030   20.5200   68.9280 O   0  0  0  0  0  0  0  0  0  0  0  0
   -4.3990   20.0300   69.9250 C   0  0  0  0  0  0  0  0  0  0  0  0
   -4.1860   18.5380   69.9430 C   0  0  0  0  0  0  0  0  0  0  0  0
   -3.1370   18.0020   70.2730 O   0  0  0  0  0  0  0  0  0  0  0  0
   -5.5300   16.5860   70.1010 O   0  0  0  0  0  0  0  0  0  0  0  0
   -4.7410   20.5700   71.2840 C   0  0  0  0  0  0  0  0  0  0  0  0
   -6.1280   20.4480   71.6850 O   0  0  0  0  0  0  0  0  0  0  0  0
   -3.7690   20.3250   72.3000 O   0  0  0  0  0  0  0  0  0  0  0  0
   -3.9880   21.6220   71.9820 C   0  0  0  0  0  0  0  0  0  0  0  0
   -4.3790   22.5240   72.6860 O   0  0  0  0  0  0  0  0  0  0  0  0
   -9.1910   15.1640   66.2470 O   0  0  0  0  0  0  0  0  0  0  0  0
   -9.7220   14.2720   65.2610 C   0  0  0  0  0  0  0  0  0  0  0  0
   -9.9400   12.9880   65.8520 O   0  0  0  0  0  0  0  0  0  0  0  0
  -10.4790   12.0100   64.9530 C   0  0  0  0  0  0  0  0  0  0  0  0
  -11.7530   12.4850   64.2850 C   0  0  0  0  0  0  0  0  0  0  0  0
  -12.4030   11.8590   63.4650 O   0  0  0  0  0  0  0  0  0  0  0  0
  -12.1400   13.8820   64.6860 C   0  0  0  0  0  0  0  0  0  0  0  0
  -13.2990   14.1550   64.9450 O   0  0  0  0  0  0  0  0  0  0  0  0
  -11.0400   14.8980   64.8140 C   0  0  0  0  0  0  0  0  0  0  0  0
  -11.2340   16.0670   64.5160 O   0  0  0  0  0  0  0  0  0  0  0  0
  -10.7540   10.7640   65.7380 C   0  0  0  0  0  0  0  0  0  0  0  0
   -9.7500   10.4230   66.6970 O   0  0  0  0  0  0  0  0  0  0  0  0
   -9.8900    9.6610   65.4740 O   0  0  0  0  0  0  0  0  0  0  0  0
  -13.6560   14.7840   72.6810 C   0  0  0  0  0  0  0  0  0  0  0  0
  -13.0840   15.5160   73.7730 O   0  0  0  0  0  0  0  0  0  0  0  0
  -13.9750   16.1750   72.8520 O   0  0  0  0  0  0  0  0  0  0  0  0
  1  2  2  0  0  0  0
  2  3  1  0  0  0  0
  2  7  1  0  0  0  0
  3  4  1  0  0  0  0
  4  5  1  0  0  0  0
  5  6  2  0  0  0  0
  5 15  1  0  0  0  0
  6  7  1  0  0  0  0
  6  8  1  0  0  0  0
  8  9  1  0  0  0  0
  8 13  2  0  0  0  0
  9 10  1  0  0  0  0
 10 11  2  0  0  0  0
 10 37  1  0  0  0  0
 11 12  1  0  0  0  0
 11 16  1  0  0  0  0
 12 13  1  0  0  0  0
 13 14  1  0  0  0  0
 14 15  2  0  0  0  0
 15 50  1  0  0  0  0
 16 17  2  0  0  0  0
 16 21  1  0  0  0  0
 17 18  1  0  0  0  0
 18 19  2  0  0  0  0
 19 20  1  0  0  0  0
 20 21  2  0  0  0  0
 20 22  1  0  0  0  0
 21 23  1  0  0  0  0
 22 25  2  0  0  0  0
 23 24  2  0  0  0  0
 24 25  1  0  0  0  0
 24 26  1  0  0  0  0
 25 27  1  0  0  0  0
 26 29  1  0  0  0  0
 26 31  2  0  0  0  0
 27 28  1  0  0  0  0
 28 29  1  0  0  0  0
 28 32  1  0  0  0  0
 29 30  2  0  0  0  0
 32 33  1  0  0  0  0
 32 34  1  0  0  0  0
 32 35  1  0  0  0  0
 34 35  1  0  0  0  0
 35 36  2  0  0  0  0
 37 38  1  0  0  0  0
 38 39  1  0  0  0  0
 38 45  1  0  0  0  0
 39 40  1  0  0  0  0
 40 41  1  0  0  0  0
 40 47  1  0  0  0  0
 41 42  2  0  0  0  0
 41 43  1  0  0  0  0
 43 44  2  0  0  0  0
 43 45  1  0  0  0  0
 45 46  2  0  0  0  0
 47 48  1  0  0  0  0
 47 49  1  0  0  0  0
 48 49  1  0  0  0  0
 50 51  1  0  0  0  0
 50 52  1  0  0  0  0
 51 52  1  0  0  0  0
M  END
