
 OpenBabel11272020473D

 54 62  0  0  1  0  0  0  0  0999 V2000
  -10.8320   15.7000   67.1630 C   0  0  0  0  0  0  0  0  0  0  0  0
  -10.6010   16.8050   67.8960 C   0  0  0  0  0  0  0  0  0  0  0  0
  -10.9290   16.9120   69.2430 O   0  0  0  0  0  0  0  0  0  0  0  0
  -11.5900   15.8650   69.8700 C   0  0  0  0  0  0  0  0  0  0  0  0
  -11.8770   14.7180   69.2240 C   0  0  0  0  0  0  0  0  0  0  0  0
  -11.5000   14.5000   67.7820 C   0  0  0  0  0  0  0  0  0  0  0  0
  -12.5990   13.5850   69.9040 C   0  0  0  0  0  0  0  0  0  0  0  0
  -11.7840   12.4320   69.8370 O   0  0  0  0  0  0  0  0  0  0  0  0
  -12.2630   11.3450   70.4760 C   0  0  0  0  0  0  0  0  0  0  0  0
  -11.8480   10.1850   70.1330 N   0  0  0  0  0  0  0  0  0  0  0  0
  -13.1630   11.5050   71.4680 O   0  0  0  0  0  0  0  0  0  0  0  0
  -13.3870   12.7110   72.0250 C   0  0  0  0  0  0  0  0  0  0  0  0
  -14.0740   12.8720   73.0230 O   0  0  0  0  0  0  0  0  0  0  0  0
  -12.8190   13.8670   71.3340 C   0  0  0  0  0  0  0  0  0  0  0  0
  -12.5130   15.0390   71.9310 C   0  0  0  0  0  0  0  0  0  0  0  0
  -11.9320   16.0560   71.1880 O   0  0  0  0  0  0  0  0  0  0  0  0
   -9.9880   18.0240   67.3340 C   0  0  0  0  0  0  0  0  0  0  0  0
  -10.7040   18.7210   66.3620 C   0  0  0  0  0  0  0  0  0  0  0  0
  -10.1560   19.8780   65.8600 C   0  0  0  0  0  0  0  0  0  0  0  0
  -10.8420   20.5550   64.9310 F   0  0  0  0  0  0  0  0  0  0  0  0
   -8.9790   20.3870   66.2650 N   0  0  0  0  0  0  0  0  0  0  0  0
   -8.2540   19.7090   67.1710 C   0  0  0  0  0  0  0  0  0  0  0  0
   -8.7150   18.5000   67.7400 C   0  0  0  0  0  0  0  0  0  0  0  0
   -7.0070   20.2000   67.5820 C   0  0  0  0  0  0  0  0  0  0  0  0
   -7.8870   17.8220   68.6630 C   0  0  0  0  0  0  0  0  0  0  0  0
   -6.6320   18.3300   69.0170 C   0  0  0  0  0  0  0  0  0  0  0  0
   -5.7620   17.5570   69.9070 C   0  0  0  0  0  0  0  0  0  0  0  0
   -6.1930   19.5360   68.5050 C   0  0  0  0  0  0  0  0  0  0  0  0
   -6.1380   16.5100   70.4130 O   0  0  0  0  0  0  0  0  0  0  0  0
   -4.3740   18.1090   70.1290 C   0  0  0  0  0  0  0  0  0  0  0  0
   -3.4540   17.3770   70.4600 O   0  0  0  0  0  0  0  0  0  0  0  0
   -4.2770   19.6060   69.9440 C   0  0  0  0  0  0  0  0  0  0  0  0
   -5.0030   20.1280   68.8270 O   0  0  0  0  0  0  0  0  0  0  0  0
   -6.5670   21.3640   67.0730 F   0  0  0  0  0  0  0  0  0  0  0  0
   -4.6800   20.3110   71.1990 C   0  0  0  0  0  0  0  0  0  0  0  0
   -6.0920   20.2790   71.5380 O   0  0  0  0  0  0  0  0  0  0  0  0
   -3.7800   20.1460   72.2890 O   0  0  0  0  0  0  0  0  0  0  0  0
   -3.9160   21.3990   71.8090 C   0  0  0  0  0  0  0  0  0  0  0  0
   -4.3260   22.3920   72.3750 O   0  0  0  0  0  0  0  0  0  0  0  0
  -10.5490   15.6930   65.8070 O   0  0  0  0  0  0  0  0  0  0  0  0
  -10.3530   14.4240   65.1630 C   0  0  0  0  0  0  0  0  0  0  0  0
  -10.0110   13.4230   66.1150 O   0  0  0  0  0  0  0  0  0  0  0  0
   -9.8080   12.1890   65.5300 C   0  0  0  0  0  0  0  0  0  0  0  0
   -8.7210   11.4560   65.8000 C   0  0  0  0  0  0  0  0  0  0  0  0
  -10.8310   11.6540   64.5920 C   0  0  0  0  0  0  0  0  0  0  0  0
   -7.7110   11.8880   66.6240 O   0  0  0  0  0  0  0  0  0  0  0  0
  -11.9570   12.6360   64.3440 C   0  0  0  0  0  0  0  0  0  0  0  0
  -10.7570   10.5810   64.0230 O   0  0  0  0  0  0  0  0  0  0  0  0
  -11.6440   14.1130   64.4120 C   0  0  0  0  0  0  0  0  0  0  0  0
  -13.0900   12.2450   64.1240 O   0  0  0  0  0  0  0  0  0  0  0  0
  -12.3390   14.9410   63.8400 O   0  0  0  0  0  0  0  0  0  0  0  0
  -12.6850   15.3360   73.3760 C   0  0  0  0  0  0  0  0  0  0  0  0
  -12.2210   16.5750   73.9280 O   0  0  0  0  0  0  0  0  0  0  0  0
  -13.6340   16.3380   73.7940 O   0  0  0  0  0  0  0  0  0  0  0  0
  1 40  1  0  0  0  0
  1  2  2  0  0  0  0
  1  6  1  0  0  0  0
  2  3  1  0  0  0  0
  2 17  1  0  0  0  0
  3  4  1  0  0  0  0
  4  5  2  0  0  0  0
  4 16  1  0  0  0  0
  5  6  1  0  0  0  0
  5  7  1  0  0  0  0
  7  8  1  0  0  0  0
  7 14  1  0  0  0  0
  8  9  1  0  0  0  0
  9 10  2  0  0  0  0
  9 11  1  0  0  0  0
 11 12  1  0  0  0  0
 12 13  2  0  0  0  0
 12 14  1  0  0  0  0
 14 15  2  0  0  0  0
 15 16  1  0  0  0  0
 15 52  1  0  0  0  0
 17 18  2  0  0  0  0
 17 23  1  0  0  0  0
 18 19  1  0  0  0  0
 19 20  1  0  0  0  0
 19 21  2  0  0  0  0
 21 22  1  0  0  0  0
 22 23  2  0  0  0  0
 22 24  1  0  0  0  0
 23 25  1  0  0  0  0
 24 28  2  0  0  0  0
 24 34  1  0  0  0  0
 25 26  2  0  0  0  0
 26 27  1  0  0  0  0
 26 28  1  0  0  0  0
 27 29  2  0  0  0  0
 27 30  1  0  0  0  0
 28 33  1  0  0  0  0
 30 31  2  0  0  0  0
 30 32  1  0  0  0  0
 32 33  1  0  0  0  0
 32 35  1  0  0  0  0
 35 36  1  0  0  0  0
 35 37  1  0  0  0  0
 35 38  1  0  0  0  0
 37 38  1  0  0  0  0
 38 39  2  0  0  0  0
 40 41  1  0  0  0  0
 41 42  1  0  0  0  0
 41 49  1  0  0  0  0
 42 43  1  0  0  0  0
 43 44  2  0  0  0  0
 43 45  1  0  0  0  0
 44 46  1  0  0  0  0
 45 47  1  0  0  0  0
 45 48  2  0  0  0  0
 47 49  1  0  0  0  0
 47 50  2  0  0  0  0
 49 51  2  0  0  0  0
 52 53  1  0  0  0  0
 52 54  1  0  0  0  0
 53 54  1  0  0  0  0
M  CHG  1  16   1
M  END