
 OpenBabel11262000053D

 54 62  0  0  1  0  0  0  0  0999 V2000
   -9.7200   15.6250   67.9130 C   0  0  0  0  0  0  0  0  0  0  0  0
   -9.8600   16.8640   68.4420 C   0  0  0  0  0  0  0  0  0  0  0  0
  -10.5270   17.1260   69.6440 O   0  0  0  0  0  0  0  0  0  0  0  0
  -11.1690   16.0930   70.3020 C   0  0  0  0  0  0  0  0  0  0  0  0
  -11.1470   14.8110   69.8170 C   0  0  0  0  0  0  0  0  0  0  0  0
  -10.3710   14.4600   68.6010 C   0  0  0  0  0  0  0  0  0  0  0  0
  -11.8650   13.8460   70.5120 C   0  0  0  0  0  0  0  0  0  0  0  0
  -11.8250   12.5340   70.0290 O   0  0  0  0  0  0  0  0  0  0  0  0
  -12.5750   11.4870   70.5530 C   0  0  0  0  0  0  0  0  0  0  0  0
  -12.5250   10.3640   70.0630 O   0  0  0  0  0  0  0  0  0  0  0  0
  -13.3870   11.7940   71.5890 O   0  0  0  0  0  0  0  0  0  0  0  0
  -13.3180   13.0260   72.3100 C   0  0  0  0  0  0  0  0  0  0  0  0
  -12.5740   14.1350   71.6520 C   0  0  0  0  0  0  0  0  0  0  0  0
  -12.4980   15.4480   72.1380 C   0  0  0  0  0  0  0  0  0  0  0  0
  -11.8220   16.4170   71.4400 N   0  0  0  0  0  0  0  0  0  0  0  0
  -14.6570   13.4380   72.5490 O   0  0  0  0  0  0  0  0  0  0  0  0
   -9.3640   18.0980   67.7920 C   0  0  0  0  0  0  0  0  0  0  0  0
  -10.1990   18.7020   66.8490 C   0  0  0  0  0  0  0  0  0  0  0  0
   -9.7850   19.8810   66.2710 C   0  0  0  0  0  0  0  0  0  0  0  0
  -10.5830   20.4670   65.3670 F   0  0  0  0  0  0  0  0  0  0  0  0
   -8.6260   20.4950   66.5590 N   0  0  0  0  0  0  0  0  0  0  0  0
   -7.8040   19.9270   67.4570 C   0  0  0  0  0  0  0  0  0  0  0  0
   -8.1250   18.7120   68.1110 C   0  0  0  0  0  0  0  0  0  0  0  0
   -6.5870   20.5470   67.7620 C   0  0  0  0  0  0  0  0  0  0  0  0
   -7.2010   18.1730   69.0330 C   0  0  0  0  0  0  0  0  0  0  0  0
   -5.9750   18.8040   69.2720 C   0  0  0  0  0  0  0  0  0  0  0  0
   -4.9770   18.1680   70.1330 C   0  0  0  0  0  0  0  0  0  0  0  0
   -5.6630   20.0060   68.6610 C   0  0  0  0  0  0  0  0  0  0  0  0
   -5.2410   17.2360   70.8750 O   0  0  0  0  0  0  0  0  0  0  0  0
   -3.5820   18.7240   70.0280 C   0  0  0  0  0  0  0  0  0  0  0  0
   -2.6050   18.0020   70.1620 O   0  0  0  0  0  0  0  0  0  0  0  0
   -3.5460   20.2080   69.8000 C   0  0  0  0  0  0  0  0  0  0  0  0
   -4.5080   20.7090   68.8610 O   0  0  0  0  0  0  0  0  0  0  0  0
   -6.2760   21.7070   67.1560 F   0  0  0  0  0  0  0  0  0  0  0  0
   -3.6700   20.9420   71.1070 C   0  0  0  0  0  0  0  0  0  0  0  0
   -4.6800   21.9770   71.1760 O   0  0  0  0  0  0  0  0  0  0  0  0
   -3.6040   20.1400   72.2860 O   0  0  0  0  0  0  0  0  0  0  0  0
   -2.5860   20.9760   72.0510 C   0  0  0  0  0  0  0  0  0  0  0  0
   -1.3870   20.7290   71.9400 O   0  0  0  0  0  0  0  0  0  0  0  0
   -9.0550   15.3910   66.7050 O   0  0  0  0  0  0  0  0  0  0  0  0
   -9.7390   14.5560   65.7320 C   0  0  0  0  0  0  0  0  0  0  0  0
  -10.3320   13.4150   66.3550 O   0  0  0  0  0  0  0  0  0  0  0  0
  -11.0110   12.5450   65.5310 C   0  0  0  0  0  0  0  0  0  0  0  0
  -10.9530   11.2140   65.6840 C   0  0  0  0  0  0  0  0  0  0  0  0
  -11.9460   13.0790   64.5170 C   0  0  0  0  0  0  0  0  0  0  0  0
  -10.1440   10.6000   66.6000 O   0  0  0  0  0  0  0  0  0  0  0  0
  -11.9580   14.5880   64.4540 C   0  0  0  0  0  0  0  0  0  0  0  0
  -12.6410   12.3880   63.7910 O   0  0  0  0  0  0  0  0  0  0  0  0
  -10.7770   15.3850   64.9740 C   0  0  0  0  0  0  0  0  0  0  0  0
  -12.9290   15.1580   63.9800 O   0  0  0  0  0  0  0  0  0  0  0  0
  -10.6650   16.5740   64.7020 O   0  0  0  0  0  0  0  0  0  0  0  0
  -13.1480   15.8500   73.4440 C   0  0  0  0  0  0  0  0  0  0  0  0
  -12.4890   15.4700   74.6630 O   0  0  0  0  0  0  0  0  0  0  0  0
  -12.4800   16.8450   74.2370 O   0  0  0  0  0  0  0  0  0  0  0  0
  1 40  1  0  0  0  0
  1  2  2  0  0  0  0
  1  6  1  0  0  0  0
  2  3  1  0  0  0  0
  2 17  1  0  0  0  0
  3  4  1  0  0  0  0
  4  5  2  0  0  0  0
  4 15  1  0  0  0  0
  5  6  1  0  0  0  0
  5  7  1  0  0  0  0
  7  8  1  0  0  0  0
  7 13  2  0  0  0  0
  8  9  1  0  0  0  0
  9 10  2  0  0  0  0
  9 11  1  0  0  0  0
 11 12  1  0  0  0  0
 12 13  1  0  0  0  0
 12 16  1  0  0  0  0
 13 14  1  0  0  0  0
 14 15  2  0  0  0  0
 14 52  1  0  0  0  0
 17 18  2  0  0  0  0
 17 23  1  0  0  0  0
 18 19  1  0  0  0  0
 19 20  1  0  0  0  0
 19 21  2  0  0  0  0
 21 22  1  0  0  0  0
 22 23  2  0  0  0  0
 22 24  1  0  0  0  0
 23 25  1  0  0  0  0
 24 28  2  0  0  0  0
 24 34  1  0  0  0  0
 25 26  2  0  0  0  0
 26 27  1  0  0  0  0
 26 28  1  0  0  0  0
 27 29  2  0  0  0  0
 27 30  1  0  0  0  0
 28 33  1  0  0  0  0
 30 31  2  0  0  0  0
 30 32  1  0  0  0  0
 32 33  1  0  0  0  0
 32 35  1  0  0  0  0
 35 36  1  0  0  0  0
 35 37  1  0  0  0  0
 35 38  1  0  0  0  0
 37 38  1  0  0  0  0
 38 39  2  0  0  0  0
 40 41  1  0  0  0  0
 41 42  1  0  0  0  0
 41 49  1  0  0  0  0
 42 43  1  0  0  0  0
 43 44  2  0  0  0  0
 43 45  1  0  0  0  0
 44 46  1  0  0  0  0
 45 47  1  0  0  0  0
 45 48  2  0  0  0  0
 47 49  1  0  0  0  0
 47 50  2  0  0  0  0
 49 51  2  0  0  0  0
 52 53  1  0  0  0  0
 52 54  1  0  0  0  0
 53 54  1  0  0  0  0
M  END
