
 OpenBabel10192020573D

 51 59  0  0  1  0  0  0  0  0999 V2000
  -10.5020   15.7210   67.4800 C   0  0  0  0  0  0  0  0  0  0  0  0
  -10.6850   16.9160   68.0970 C   0  0  0  0  0  0  0  0  0  0  0  0
  -11.4850   17.0530   69.2360 O   0  0  0  0  0  0  0  0  0  0  0  0
  -11.9080   15.9220   69.9130 C   0  0  0  0  0  0  0  0  0  0  0  0
  -11.7570   14.6960   69.3930 C   0  0  0  0  0  0  0  0  0  0  0  0
  -11.1270   14.4670   68.0640 C   0  0  0  0  0  0  0  0  0  0  0  0
  -12.1960   13.5300   70.2080 C   0  0  0  0  0  0  0  0  0  0  0  0
  -12.1150   12.3270   69.7410 N   0  0  0  0  0  0  0  0  0  0  0  0
  -12.5100   11.2660   70.5300 C   0  0  0  0  0  0  0  0  0  0  0  0
  -12.4610   10.1400   70.0510 O   0  0  0  0  0  0  0  0  0  0  0  0
  -12.9650   11.4100   71.8240 N   0  0  0  0  0  0  0  0  0  0  0  0
  -13.0600   12.5960   72.3170 C   0  0  0  0  0  0  0  0  0  0  0  0
  -12.7090   13.8060   71.5720 C   0  0  0  0  0  0  0  0  0  0  0  0
  -12.8070   15.0770   72.0100 C   0  0  0  0  0  0  0  0  0  0  0  0
  -12.4590   16.1160   71.1540 N   0  0  0  0  0  0  0  0  0  0  0  0
   -9.9390   18.1640   67.8140 C   0  0  0  0  0  0  0  0  0  0  0  0
  -10.6430   18.9890   67.0010 N   0  0  0  0  0  0  0  0  0  0  0  0
  -10.0530   20.1300   66.6460 C   0  0  0  0  0  0  0  0  0  0  0  0
   -8.8270   20.5180   67.0010 N   0  0  0  0  0  0  0  0  0  0  0  0
   -8.1270   19.6860   67.7700 C   0  0  0  0  0  0  0  0  0  0  0  0
   -8.6190   18.4450   68.2210 C   0  0  0  0  0  0  0  0  0  0  0  0
   -6.8450   20.0890   68.1180 C   0  0  0  0  0  0  0  0  0  0  0  0
   -7.7580   17.6160   68.9920 C   0  0  0  0  0  0  0  0  0  0  0  0
   -6.4590   18.0430   69.3060 C   0  0  0  0  0  0  0  0  0  0  0  0
   -6.0100   19.2940   68.8980 C   0  0  0  0  0  0  0  0  0  0  0  0
   -5.5140   17.1690   70.0190 C   0  0  0  0  0  0  0  0  0  0  0  0
   -4.7710   19.8110   69.1670 O   0  0  0  0  0  0  0  0  0  0  0  0
   -4.0650   19.1970   70.2590 C   0  0  0  0  0  0  0  0  0  0  0  0
   -4.0990   17.6960   70.1170 C   0  0  0  0  0  0  0  0  0  0  0  0
   -3.1390   16.9470   70.0340 O   0  0  0  0  0  0  0  0  0  0  0  0
   -5.8360   16.0930   70.4910 O   0  0  0  0  0  0  0  0  0  0  0  0
   -2.6700   19.7550   70.3210 C   0  0  0  0  0  0  0  0  0  0  0  0
   -1.9160   19.4720   71.5020 O   0  0  0  0  0  0  0  0  0  0  0  0
   -2.3270   20.7360   71.3410 C   0  0  0  0  0  0  0  0  0  0  0  0
   -3.0200   21.4240   72.0760 O   0  0  0  0  0  0  0  0  0  0  0  0
   -1.8890   19.7540   69.1070 O   0  0  0  0  0  0  0  0  0  0  0  0
   -9.6410   15.5570   66.3970 O   0  0  0  0  0  0  0  0  0  0  0  0
   -9.7420   14.2980   65.6890 C   0  0  0  0  0  0  0  0  0  0  0  0
  -11.0960   13.8800   65.5050 O   0  0  0  0  0  0  0  0  0  0  0  0
  -11.1660   12.6910   64.7920 C   0  0  0  0  0  0  0  0  0  0  0  0
  -11.8490   12.5640   63.6470 C   0  0  0  0  0  0  0  0  0  0  0  0
  -10.4170   11.5070   65.2800 C   0  0  0  0  0  0  0  0  0  0  0  0
  -12.4970   13.6080   63.0460 O   0  0  0  0  0  0  0  0  0  0  0  0
   -9.4070   11.8570   66.3490 C   0  0  0  0  0  0  0  0  0  0  0  0
  -10.5260   10.3790   64.8310 O   0  0  0  0  0  0  0  0  0  0  0  0
   -8.9000   13.2800   66.4490 C   0  0  0  0  0  0  0  0  0  0  0  0
   -8.9830   10.9930   67.1000 O   0  0  0  0  0  0  0  0  0  0  0  0
   -7.8320   13.5250   66.9980 O   0  0  0  0  0  0  0  0  0  0  0  0
  -13.2630   15.4950   73.3570 C   0  0  0  0  0  0  0  0  0  0  0  0
  -12.5460   15.2060   74.5680 O   0  0  0  0  0  0  0  0  0  0  0  0
  -12.5910   16.5520   74.0660 O   0  0  0  0  0  0  0  0  0  0  0  0
  1 37  1  0  0  0  0
  1  2  2  0  0  0  0
  1  6  1  0  0  0  0
  2  3  1  0  0  0  0
  2 16  1  0  0  0  0
  3  4  1  0  0  0  0
  4  5  2  0  0  0  0
  4 15  1  0  0  0  0
  5  6  1  0  0  0  0
  5  7  1  0  0  0  0
  7  8  2  0  0  0  0
  7 13  1  0  0  0  0
  8  9  1  0  0  0  0
  9 10  2  0  0  0  0
  9 11  1  0  0  0  0
 11 12  2  0  0  0  0
 12 13  1  0  0  0  0
 13 14  2  0  0  0  0
 14 15  1  0  0  0  0
 14 49  1  0  0  0  0
 16 17  2  0  0  0  0
 16 21  1  0  0  0  0
 17 18  1  0  0  0  0
 18 19  2  0  0  0  0
 19 20  1  0  0  0  0
 20 21  2  0  0  0  0
 20 22  1  0  0  0  0
 21 23  1  0  0  0  0
 22 25  2  0  0  0  0
 23 24  2  0  0  0  0
 24 25  1  0  0  0  0
 24 26  1  0  0  0  0
 25 27  1  0  0  0  0
 26 29  1  0  0  0  0
 26 31  2  0  0  0  0
 27 28  1  0  0  0  0
 28 29  1  0  0  0  0
 28 32  1  0  0  0  0
 29 30  2  0  0  0  0
 32 33  1  0  0  0  0
 32 34  1  0  0  0  0
 32 36  1  0  0  0  0
 33 34  1  0  0  0  0
 34 35  2  0  0  0  0
 37 38  1  0  0  0  0
 38 39  1  0  0  0  0
 38 46  1  0  0  0  0
 39 40  1  0  0  0  0
 40 41  2  0  0  0  0
 40 42  1  0  0  0  0
 41 43  1  0  0  0  0
 42 44  1  0  0  0  0
 42 45  2  0  0  0  0
 44 46  1  0  0  0  0
 44 47  2  0  0  0  0
 46 48  2  0  0  0  0
 49 50  1  0  0  0  0
 49 51  1  0  0  0  0
 50 51  1  0  0  0  0
M  END
