
 OpenBabel11232002243D

 53 63  0  0  1  0  0  0  0  0999 V2000
  -10.1200   11.4060   68.2860 C   0  0  0  0  0  0  0  0  0  0  0  0
  -10.4160   11.1690   66.9860 C   0  0  0  0  0  0  0  0  0  0  0  0
  -10.2840    9.9020   66.4150 O   0  0  0  0  0  0  0  0  0  0  0  0
  -10.1200    8.8010   67.2490 C   0  0  0  0  0  0  0  0  0  0  0  0
   -9.8280    8.9310   68.5540 C   0  0  0  0  0  0  0  0  0  0  0  0
   -9.6070   10.2780   69.1660 C   0  0  0  0  0  0  0  0  0  0  0  0
   -9.7430    7.7150   69.4470 C   0  0  0  0  0  0  0  0  0  0  0  0
  -10.7500    7.8720   70.4930 N   0  0  0  0  0  0  0  0  0  0  0  0
  -10.8870    6.8600   71.3830 C   0  0  0  0  0  0  0  0  0  0  0  0
  -11.1190    7.0600   72.6270 N   0  0  0  0  0  0  0  0  0  0  0  0
  -10.8550    5.6190   70.8570 N   0  0  0  0  0  0  0  0  0  0  0  0
  -10.0470    5.2600   69.7150 C   0  0  0  0  0  0  0  0  0  0  0  0
  -10.0470    6.4100   68.7530 C   0  0  0  0  0  0  0  0  0  0  0  0
  -10.3210    6.3700   67.4300 C   0  0  0  0  0  0  0  0  0  0  0  0
  -10.3190    7.5580   66.7080 N   0  0  0  0  0  0  0  0  0  0  0  0
  -10.9910   12.1610   66.0410 C   0  0  0  0  0  0  0  0  0  0  0  0
  -11.9310   11.7000   65.1200 C   0  0  0  0  0  0  0  0  0  0  0  0
  -12.4650   12.5270   64.2120 N   0  0  0  0  0  0  0  0  0  0  0  0
  -12.1610   13.8070   64.1510 N   0  0  0  0  0  0  0  0  0  0  0  0
  -13.3440   12.0440   63.3130 F   0  0  0  0  0  0  0  0  0  0  0  0
  -11.2710   14.3160   65.0020 C   0  0  0  0  0  0  0  0  0  0  0  0
  -10.6160   13.5260   65.9700 C   0  0  0  0  0  0  0  0  0  0  0  0
  -10.9930   15.6810   64.9250 C   0  0  0  0  0  0  0  0  0  0  0  0
   -9.6420   14.1600   66.7850 C   0  0  0  0  0  0  0  0  0  0  0  0
   -9.3890   15.5410   66.6800 C   0  0  0  0  0  0  0  0  0  0  0  0
   -8.4230   16.1970   67.5760 C   0  0  0  0  0  0  0  0  0  0  0  0
  -10.0820   16.3140   65.7660 C   0  0  0  0  0  0  0  0  0  0  0  0
   -8.6330   17.6690   67.8060 C   0  0  0  0  0  0  0  0  0  0  0  0
   -7.5620   15.5230   68.1300 O   0  0  0  0  0  0  0  0  0  0  0  0
   -9.7420   17.7560   68.7490 O   0  0  0  0  0  0  0  0  0  0  0  0
   -9.0650   18.3650   66.5530 C   0  0  0  0  0  0  0  0  0  0  0  0
  -10.2750   19.1540   68.7290 O   0  0  0  0  0  0  0  0  0  0  0  0
  -10.4360   19.4560   67.3210 C   0  0  0  0  0  0  0  0  0  0  0  0
   -9.0310   19.8840   66.8570 C   0  0  0  0  0  0  0  0  0  0  0  0
  -10.1420   20.7180   66.7030 O   0  0  0  0  0  0  0  0  0  0  0  0
   -8.2730   19.2980   65.8360 O   0  0  0  0  0  0  0  0  0  0  0  0
   -9.9590   17.6700   65.6350 O   0  0  0  0  0  0  0  0  0  0  0  0
  -11.6520   16.4200   64.0170 F   0  0  0  0  0  0  0  0  0  0  0  0
  -10.3820   12.6350   68.8760 O   0  0  0  0  0  0  0  0  0  0  0  0
  -11.6540   12.7910   69.5410 C   0  0  0  0  0  0  0  0  0  0  0  0
  -11.8020   11.8260   70.5760 O   0  0  0  0  0  0  0  0  0  0  0  0
  -12.9380   11.9420   71.3590 C   0  0  0  0  0  0  0  0  0  0  0  0
  -13.4910   10.8560   71.9110 C   0  0  0  0  0  0  0  0  0  0  0  0
  -13.5680   13.2660   71.6680 C   0  0  0  0  0  0  0  0  0  0  0  0
  -13.0060    9.5910   71.6980 O   0  0  0  0  0  0  0  0  0  0  0  0
  -12.9720   14.4270   70.8880 C   0  0  0  0  0  0  0  0  0  0  0  0
  -14.4810   13.4270   72.4510 O   0  0  0  0  0  0  0  0  0  0  0  0
  -11.7000   14.1870   70.1220 C   0  0  0  0  0  0  0  0  0  0  0  0
  -13.5430   15.4930   70.8000 O   0  0  0  0  0  0  0  0  0  0  0  0
  -10.8470   15.0500   70.0050 O   0  0  0  0  0  0  0  0  0  0  0  0
  -10.6590    5.1410   66.6670 C   0  0  0  0  0  0  0  0  0  0  0  0
  -10.0310    4.8370   65.4070 O   0  0  0  0  0  0  0  0  0  0  0  0
   -9.7460    4.0380   66.5720 O   0  0  0  0  0  0  0  0  0  0  0  0
  1 39  1  0  0  0  0
  1  2  2  0  0  0  0
  1  6  1  0  0  0  0
  2  3  1  0  0  0  0
  2 16  1  0  0  0  0
  3  4  1  0  0  0  0
  4  5  2  0  0  0  0
  4 15  1  0  0  0  0
  5  6  1  0  0  0  0
  5  7  1  0  0  0  0
  7  8  1  0  0  0  0
  7 13  1  0  0  0  0
  8  9  1  0  0  0  0
  9 10  2  0  0  0  0
  9 11  1  0  0  0  0
 11 12  1  0  0  0  0
 12 13  1  0  0  0  0
 13 14  2  0  0  0  0
 14 15  1  0  0  0  0
 14 51  1  0  0  0  0
 16 17  2  0  0  0  0
 16 22  1  0  0  0  0
 17 18  1  0  0  0  0
 18 19  2  0  0  0  0
 18 20  1  0  0  0  0
 19 21  1  0  0  0  0
 21 22  2  0  0  0  0
 21 23  1  0  0  0  0
 22 24  1  0  0  0  0
 23 27  2  0  0  0  0
 23 38  1  0  0  0  0
 24 25  2  0  0  0  0
 25 26  1  0  0  0  0
 25 27  1  0  0  0  0
 26 28  1  0  0  0  0
 26 29  2  0  0  0  0
 27 37  1  0  0  0  0
 28 30  1  0  0  0  0
 28 31  1  0  0  0  0
 30 32  1  0  0  0  0
 31 34  1  0  0  0  0
 31 37  1  0  0  0  0
 31 36  1  0  0  0  0
 32 33  1  0  0  0  0
 33 34  1  0  0  0  0
 33 35  1  0  0  0  0
 34 36  1  0  0  0  0
 34 35  1  0  0  0  0
 39 40  1  0  0  0  0
 40 41  1  0  0  0  0
 40 48  1  0  0  0  0
 41 42  1  0  0  0  0
 42 43  2  0  0  0  0
 42 44  1  0  0  0  0
 43 45  1  0  0  0  0
 44 46  1  0  0  0  0
 44 47  2  0  0  0  0
 46 48  1  0  0  0  0
 46 49  2  0  0  0  0
 48 50  2  0  0  0  0
 51 52  1  0  0  0  0
 51 53  1  0  0  0  0
 52 53  1  0  0  0  0
M  CHG  1  18   1
M  END