
 OpenBabel11272002573D

 53 61  0  0  1  0  0  0  0  0999 V2000
  -10.2340   15.4080   67.9180 C   0  0  0  0  0  0  0  0  0  0  0  0
  -10.5060   16.7140   68.1660 C   0  0  0  0  0  0  0  0  0  0  0  0
  -11.3480   17.0960   69.2270 O   0  0  0  0  0  0  0  0  0  0  0  0
  -11.5520   16.0580   70.1860 C   0  0  0  0  0  0  0  0  0  0  0  0
  -12.1270   14.8420   69.4930 C   0  0  0  0  0  0  0  0  0  0  0  0
  -11.0610   14.3080   68.5340 C   0  0  0  0  0  0  0  0  0  0  0  0
  -12.4840   13.7880   70.5020 C   0  0  0  0  0  0  0  0  0  0  0  0
  -12.8070   12.6100   70.0860 N   0  0  0  0  0  0  0  0  0  0  0  0
  -13.0000   11.6540   71.0590 C   0  0  0  0  0  0  0  0  0  0  0  0
  -12.5240   10.5270   70.9090 O   0  0  0  0  0  0  0  0  0  0  0  0
  -13.6230   12.0010   72.2250 N   0  0  0  0  0  0  0  0  0  0  0  0
  -13.3310   13.1710   72.7020 C   0  0  0  0  0  0  0  0  0  0  0  0
  -12.3930   14.1050   71.9690 C   0  0  0  0  0  0  0  0  0  0  0  0
  -12.6700   15.5880   72.2760 C   0  0  0  0  0  0  0  0  0  0  0  0
  -12.4120   16.5000   71.2040 O   0  0  0  0  0  0  0  0  0  0  0  0
   -9.8720   17.8850   67.4630 C   0  0  0  0  0  0  0  0  0  0  0  0
  -10.7430   18.5300   66.6580 N   0  0  0  0  0  0  0  0  0  0  0  0
  -10.2930   19.6460   66.0730 C   0  0  0  0  0  0  0  0  0  0  0  0
  -11.1170   20.2500   65.2050 F   0  0  0  0  0  0  0  0  0  0  0  0
   -9.1000   20.2070   66.2770 N   0  0  0  0  0  0  0  0  0  0  0  0
   -8.2290   19.5670   67.0680 C   0  0  0  0  0  0  0  0  0  0  0  0
   -8.5290   18.3140   67.6200 C   0  0  0  0  0  0  0  0  0  0  0  0
   -6.9840   20.1460   67.3690 C   0  0  0  0  0  0  0  0  0  0  0  0
   -7.4780   17.6100   68.2680 C   0  0  0  0  0  0  0  0  0  0  0  0
   -6.2610   18.2230   68.5700 C   0  0  0  0  0  0  0  0  0  0  0  0
   -5.2370   17.4920   69.3210 C   0  0  0  0  0  0  0  0  0  0  0  0
   -6.0230   19.5190   68.1720 C   0  0  0  0  0  0  0  0  0  0  0  0
   -5.3880   16.3170   69.6170 O   0  0  0  0  0  0  0  0  0  0  0  0
   -4.0200   18.2690   69.7590 C   0  0  0  0  0  0  0  0  0  0  0  0
   -3.0770   17.6990   70.2910 O   0  0  0  0  0  0  0  0  0  0  0  0
   -4.1650   19.7710   69.6460 C   0  0  0  0  0  0  0  0  0  0  0  0
   -4.8750   20.1970   68.4690 O   0  0  0  0  0  0  0  0  0  0  0  0
   -6.7020   21.3650   66.8780 F   0  0  0  0  0  0  0  0  0  0  0  0
   -4.7450   20.3960   70.8950 C   0  0  0  0  0  0  0  0  0  0  0  0
   -6.1740   20.5630   70.9130 O   0  0  0  0  0  0  0  0  0  0  0  0
   -4.1610   19.9500   72.1200 O   0  0  0  0  0  0  0  0  0  0  0  0
   -3.9610   21.3350   71.8000 C   0  0  0  0  0  0  0  0  0  0  0  0
   -4.7500   22.2550   72.5720 O   0  0  0  0  0  0  0  0  0  0  0  0
   -9.2130   15.0540   67.0610 O   0  0  0  0  0  0  0  0  0  0  0  0
   -9.4250   14.1260   65.9850 C   0  0  0  0  0  0  0  0  0  0  0  0
   -9.7490   12.8540   66.5140 O   0  0  0  0  0  0  0  0  0  0  0  0
  -10.2350   11.9250   65.6150 C   0  0  0  0  0  0  0  0  0  0  0  0
  -10.1290   10.6120   65.8490 C   0  0  0  0  0  0  0  0  0  0  0  0
  -10.9850   12.3390   64.4050 C   0  0  0  0  0  0  0  0  0  0  0  0
   -9.4990   10.1120   66.9590 O   0  0  0  0  0  0  0  0  0  0  0  0
  -11.4130   13.7780   64.4510 C   0  0  0  0  0  0  0  0  0  0  0  0
  -11.2250   11.6310   63.4440 O   0  0  0  0  0  0  0  0  0  0  0  0
  -10.4810   14.7730   65.0950 C   0  0  0  0  0  0  0  0  0  0  0  0
  -12.5000   14.1050   64.0050 O   0  0  0  0  0  0  0  0  0  0  0  0
  -10.5270   15.9650   64.8230 O   0  0  0  0  0  0  0  0  0  0  0  0
  -11.9540   16.0220   73.5390 C   0  0  0  0  0  0  0  0  0  0  0  0
  -12.6130   16.9290   74.4140 N   0  0  0  0  0  0  0  0  0  0  0  0
  -12.5350   15.7500   74.8040 N   0  0  0  0  0  0  0  0  0  0  0  0
  1 39  1  0  0  0  0
  1  2  2  0  0  0  0
  1  6  1  0  0  0  0
  2  3  1  0  0  0  0
  2 16  1  0  0  0  0
  3  4  1  0  0  0  0
  4  5  1  0  0  0  0
  4 15  1  0  0  0  0
  5  6  1  0  0  0  0
  5  7  1  0  0  0  0
  7  8  2  0  0  0  0
  7 13  1  0  0  0  0
  8  9  1  0  0  0  0
  9 10  2  0  0  0  0
  9 11  1  0  0  0  0
 11 12  2  0  0  0  0
 12 13  1  0  0  0  0
 13 14  1  0  0  0  0
 14 15  1  0  0  0  0
 14 51  1  0  0  0  0
 16 17  2  0  0  0  0
 16 22  1  0  0  0  0
 17 18  1  0  0  0  0
 18 19  1  0  0  0  0
 18 20  2  0  0  0  0
 20 21  1  0  0  0  0
 21 22  2  0  0  0  0
 21 23  1  0  0  0  0
 22 24  1  0  0  0  0
 23 27  2  0  0  0  0
 23 33  1  0  0  0  0
 24 25  2  0  0  0  0
 25 26  1  0  0  0  0
 25 27  1  0  0  0  0
 26 28  2  0  0  0  0
 26 29  1  0  0  0  0
 27 32  1  0  0  0  0
 29 30  2  0  0  0  0
 29 31  1  0  0  0  0
 31 32  1  0  0  0  0
 31 34  1  0  0  0  0
 34 35  1  0  0  0  0
 34 36  1  0  0  0  0
 34 37  1  0  0  0  0
 36 37  1  0  0  0  0
 37 38  1  0  0  0  0
 39 40  1  0  0  0  0
 40 41  1  0  0  0  0
 40 48  1  0  0  0  0
 41 42  1  0  0  0  0
 42 43  2  0  0  0  0
 42 44  1  0  0  0  0
 43 45  1  0  0  0  0
 44 46  1  0  0  0  0
 44 47  2  0  0  0  0
 46 48  1  0  0  0  0
 46 49  2  0  0  0  0
 48 50  2  0  0  0  0
 51 52  1  0  0  0  0
 51 53  1  0  0  0  0
 52 53  2  0  0  0  0
M  CHG  1  15   1
M  END