
 OpenBabel09222006173D

 50 58  0  0  1  0  0  0  0  0999 V2000
  -12.3050    9.5440   69.5280 O   0  0  0  0  0  0  0  0  0  0  0  0
  -12.4600   10.6260   70.0820 C   0  0  0  0  0  0  0  0  0  0  0  0
  -13.3160   10.7740   71.1220 N   0  0  0  0  0  0  0  0  0  0  0  0
  -13.3820   11.9460   71.9650 C   0  0  0  0  0  0  0  0  0  0  0  0
  -12.7630   13.1460   71.3380 C   0  0  0  0  0  0  0  0  0  0  0  0
  -11.9710   13.0170   70.2060 C   0  0  0  0  0  0  0  0  0  0  0  0
  -11.8030   11.7390   69.6570 N   0  0  0  0  0  0  0  0  0  0  0  0
  -11.3630   14.1410   69.6340 C   0  0  0  0  0  0  0  0  0  0  0  0
  -10.4760   14.0410   68.4400 C   0  0  0  0  0  0  0  0  0  0  0  0
   -9.9470   15.3570   67.9350 C   0  0  0  0  0  0  0  0  0  0  0  0
  -10.3110   16.5070   68.5520 C   0  0  0  0  0  0  0  0  0  0  0  0
  -11.0950   16.5420   69.7040 O   0  0  0  0  0  0  0  0  0  0  0  0
  -11.5940   15.3720   70.2310 C   0  0  0  0  0  0  0  0  0  0  0  0
  -12.3380   15.5290   71.3480 N   0  0  0  0  0  0  0  0  0  0  0  0
  -12.8860   14.4160   71.8610 C   0  0  0  0  0  0  0  0  0  0  0  0
  -13.6020   14.6390   72.9920 O   0  0  0  0  0  0  0  0  0  0  0  0
   -9.8950   17.8720   68.1420 C   0  0  0  0  0  0  0  0  0  0  0  0
  -10.8930   18.6000   67.5740 N   0  0  0  0  0  0  0  0  0  0  0  0
  -10.5820   19.8230   67.0950 C   0  0  0  0  0  0  0  0  0  0  0  0
   -9.3180   20.3760   67.1480 C   0  0  0  0  0  0  0  0  0  0  0  0
   -8.2880   19.6400   67.7300 C   0  0  0  0  0  0  0  0  0  0  0  0
   -8.5540   18.3410   68.2360 C   0  0  0  0  0  0  0  0  0  0  0  0
   -7.0050   20.2050   67.8220 C   0  0  0  0  0  0  0  0  0  0  0  0
   -7.4620   17.6270   68.7930 C   0  0  0  0  0  0  0  0  0  0  0  0
   -6.2000   18.2280   68.9200 C   0  0  0  0  0  0  0  0  0  0  0  0
   -5.9780   19.5210   68.4600 C   0  0  0  0  0  0  0  0  0  0  0  0
   -5.0970   17.5260   69.5920 C   0  0  0  0  0  0  0  0  0  0  0  0
   -4.8010   20.2000   68.6200 O   0  0  0  0  0  0  0  0  0  0  0  0
   -4.0820   19.8550   69.8120 C   0  0  0  0  0  0  0  0  0  0  0  0
   -3.9080   18.3690   70.0140 C   0  0  0  0  0  0  0  0  0  0  0  0
   -2.9230   17.8610   70.5320 O   0  0  0  0  0  0  0  0  0  0  0  0
   -5.1380   16.3270   69.8170 O   0  0  0  0  0  0  0  0  0  0  0  0
   -4.6930   20.5110   71.0140 C   0  0  0  0  0  0  0  0  0  0  0  0
   -6.1400   20.6000   71.0520 O   0  0  0  0  0  0  0  0  0  0  0  0
   -4.0610   20.2050   72.2570 O   0  0  0  0  0  0  0  0  0  0  0  0
   -3.9880   21.4870   71.8470 C   0  0  0  0  0  0  0  0  0  0  0  0
   -4.3970   22.4950   72.3710 O   0  0  0  0  0  0  0  0  0  0  0  0
   -9.1300   15.3390   66.8050 O   0  0  0  0  0  0  0  0  0  0  0  0
   -9.6280   14.6500   65.6320 C   0  0  0  0  0  0  0  0  0  0  0  0
   -9.9540   13.2930   65.9390 O   0  0  0  0  0  0  0  0  0  0  0  0
  -10.7970   12.6190   65.0620 C   0  0  0  0  0  0  0  0  0  0  0  0
  -11.7290   13.2590   64.3340 C   0  0  0  0  0  0  0  0  0  0  0  0
  -11.8780   14.7200   64.4450 C   0  0  0  0  0  0  0  0  0  0  0  0
  -12.6390   12.5840   63.5360 O   0  0  0  0  0  0  0  0  0  0  0  0
  -12.8910   15.2610   64.0170 O   0  0  0  0  0  0  0  0  0  0  0  0
  -10.7300   15.5000   65.0230 C   0  0  0  0  0  0  0  0  0  0  0  0
  -10.6830   16.7150   64.8670 O   0  0  0  0  0  0  0  0  0  0  0  0
  -10.6680   11.1370   65.0420 C   0  0  0  0  0  0  0  0  0  0  0  0
   -9.8660   10.4320   64.0740 O   0  0  0  0  0  0  0  0  0  0  0  0
   -9.4540   10.4850   65.4510 O   0  0  0  0  0  0  0  0  0  0  0  0
  1  2  2  0  0  0  0
  2  3  1  0  0  0  0
  2  7  1  0  0  0  0
  3  4  1  0  0  0  0
  4  5  1  0  0  0  0
  5  6  2  0  0  0  0
  5 15  1  0  0  0  0
  6  7  1  0  0  0  0
  6  8  1  0  0  0  0
  8  9  1  0  0  0  0
  8 13  2  0  0  0  0
  9 10  1  0  0  0  0
 10 11  2  0  0  0  0
 10 38  1  0  0  0  0
 11 12  1  0  0  0  0
 11 17  1  0  0  0  0
 12 13  1  0  0  0  0
 13 14  1  0  0  0  0
 14 15  2  0  0  0  0
 15 16  1  0  0  0  0
 17 18  2  0  0  0  0
 17 22  1  0  0  0  0
 18 19  1  0  0  0  0
 19 20  2  0  0  0  0
 20 21  1  0  0  0  0
 21 22  2  0  0  0  0
 21 23  1  0  0  0  0
 22 24  1  0  0  0  0
 23 26  2  0  0  0  0
 24 25  2  0  0  0  0
 25 26  1  0  0  0  0
 25 27  1  0  0  0  0
 26 28  1  0  0  0  0
 27 30  1  0  0  0  0
 27 32  2  0  0  0  0
 28 29  1  0  0  0  0
 29 30  1  0  0  0  0
 29 33  1  0  0  0  0
 30 31  2  0  0  0  0
 33 34  1  0  0  0  0
 33 35  1  0  0  0  0
 33 36  1  0  0  0  0
 35 36  1  0  0  0  0
 36 37  2  0  0  0  0
 38 39  1  0  0  0  0
 39 40  1  0  0  0  0
 39 46  1  0  0  0  0
 40 41  1  0  0  0  0
 41 42  2  0  0  0  0
 41 48  1  0  0  0  0
 42 43  1  0  0  0  0
 42 44  1  0  0  0  0
 43 45  2  0  0  0  0
 43 46  1  0  0  0  0
 46 47  2  0  0  0  0
 48 49  1  0  0  0  0
 48 50  1  0  0  0  0
 49 50  1  0  0  0  0
M  END
