
 OpenBabel11212020593D

 54 62  0  0  1  0  0  0  0  0999 V2000
  -11.2640   15.8580   67.2570 C   0  0  0  0  0  0  0  0  0  0  0  0
  -10.6850   16.8660   67.9640 C   0  0  0  0  0  0  0  0  0  0  0  0
  -10.8590   16.9510   69.3530 O   0  0  0  0  0  0  0  0  0  0  0  0
  -11.5370   15.9630   70.0610 C   0  0  0  0  0  0  0  0  0  0  0  0
  -12.0780   14.9040   69.4380 C   0  0  0  0  0  0  0  0  0  0  0  0
  -12.0680   14.7790   67.9470 C   0  0  0  0  0  0  0  0  0  0  0  0
  -12.7220   13.7750   70.1940 C   0  0  0  0  0  0  0  0  0  0  0  0
  -11.9060   12.6320   69.9980 O   0  0  0  0  0  0  0  0  0  0  0  0
  -12.2360   11.4910   70.6620 C   0  0  0  0  0  0  0  0  0  0  0  0
  -11.7580   10.4150   70.3500 O   0  0  0  0  0  0  0  0  0  0  0  0
  -13.1230   11.6310   71.6770 O   0  0  0  0  0  0  0  0  0  0  0  0
  -13.3560   12.8660   72.3440 C   0  0  0  0  0  0  0  0  0  0  0  0
  -12.7320   14.0220   71.6530 C   0  0  0  0  0  0  0  0  0  0  0  0
  -12.2140   15.1340   72.2170 C   0  0  0  0  0  0  0  0  0  0  0  0
  -11.6110   16.1030   71.4290 O   0  0  0  0  0  0  0  0  0  0  0  0
  -14.7420   13.1400   72.3270 O   0  0  0  0  0  0  0  0  0  0  0  0
   -9.8010   17.9610   67.3950 C   0  0  0  0  0  0  0  0  0  0  0  0
  -10.3550   18.8650   66.4870 C   0  0  0  0  0  0  0  0  0  0  0  0
   -9.6290   19.8530   65.9570 N   0  0  0  0  0  0  0  0  0  0  0  0
  -10.2030   20.6830   65.0640 F   0  0  0  0  0  0  0  0  0  0  0  0
   -8.3710   20.0620   66.2770 N   0  0  0  0  0  0  0  0  0  0  0  0
   -7.7460   19.2670   67.1480 C   0  0  0  0  0  0  0  0  0  0  0  0
   -8.4090   18.1460   67.7010 C   0  0  0  0  0  0  0  0  0  0  0  0
   -6.4170   19.5610   67.5420 C   0  0  0  0  0  0  0  0  0  0  0  0
   -7.6240   17.3070   68.5320 C   0  0  0  0  0  0  0  0  0  0  0  0
   -6.3060   17.6200   68.9040 C   0  0  0  0  0  0  0  0  0  0  0  0
   -5.5720   16.7070   69.7840 C   0  0  0  0  0  0  0  0  0  0  0  0
   -5.7150   18.7880   68.4780 C   0  0  0  0  0  0  0  0  0  0  0  0
   -6.0410   15.6100   70.0530 O   0  0  0  0  0  0  0  0  0  0  0  0
   -4.2350   17.1810   70.3040 C   0  0  0  0  0  0  0  0  0  0  0  0
   -3.4530   16.3840   70.7960 O   0  0  0  0  0  0  0  0  0  0  0  0
   -4.0180   18.6750   70.1940 C   0  0  0  0  0  0  0  0  0  0  0  0
   -4.5100   19.2310   68.9540 O   0  0  0  0  0  0  0  0  0  0  0  0
   -5.5490   21.0960   66.7910 Br  0  0  0  0  0  0  0  0  0  0  0  0
   -4.5170   19.3880   71.4320 C   0  0  0  0  0  0  0  0  0  0  0  0
   -5.5180   18.6950   72.2020 O   0  0  0  0  0  0  0  0  0  0  0  0
   -3.5470   20.1130   72.1940 O   0  0  0  0  0  0  0  0  0  0  0  0
   -4.5020   20.8300   71.5930 C   0  0  0  0  0  0  0  0  0  0  0  0
   -4.4510   21.7370   70.7750 O   0  0  0  0  0  0  0  0  0  0  0  0
  -11.0720   15.7050   65.8910 O   0  0  0  0  0  0  0  0  0  0  0  0
  -10.3730   14.5160   65.4150 C   0  0  0  0  0  0  0  0  0  0  0  0
   -9.9430   13.7680   66.5290 O   0  0  0  0  0  0  0  0  0  0  0  0
   -9.6190   12.4530   66.2930 C   0  0  0  0  0  0  0  0  0  0  0  0
   -8.6640   11.8460   67.0090 C   0  0  0  0  0  0  0  0  0  0  0  0
  -10.3440   11.6300   65.2760 C   0  0  0  0  0  0  0  0  0  0  0  0
   -7.9120   12.4950   67.9560 O   0  0  0  0  0  0  0  0  0  0  0  0
  -11.0670   12.3640   64.1760 C   0  0  0  0  0  0  0  0  0  0  0  0
  -10.2870   10.4020   65.3160 O   0  0  0  0  0  0  0  0  0  0  0  0
  -11.3630   13.8090   64.4910 C   0  0  0  0  0  0  0  0  0  0  0  0
  -12.2180   11.7120   63.8320 F   0  0  0  0  0  0  0  0  0  0  0  0
  -12.2940   14.4270   63.9650 O   0  0  0  0  0  0  0  0  0  0  0  0
  -12.2130   15.3960   73.6730 C   0  0  0  0  0  0  0  0  0  0  0  0
  -11.9790   16.7140   74.1840 O   0  0  0  0  0  0  0  0  0  0  0  0
  -13.2930   16.1290   74.2790 O   0  0  0  0  0  0  0  0  0  0  0  0
  1 40  1  0  0  0  0
  1  2  2  0  0  0  0
  1  6  1  0  0  0  0
  2  3  1  0  0  0  0
  2 17  1  0  0  0  0
  3  4  1  0  0  0  0
  4  5  2  0  0  0  0
  4 15  1  0  0  0  0
  5  6  1  0  0  0  0
  5  7  1  0  0  0  0
  7  8  1  0  0  0  0
  7 13  1  0  0  0  0
  8  9  1  0  0  0  0
  9 10  2  0  0  0  0
  9 11  1  0  0  0  0
 11 12  1  0  0  0  0
 12 13  1  0  0  0  0
 12 16  1  0  0  0  0
 13 14  2  0  0  0  0
 14 15  1  0  0  0  0
 14 52  1  0  0  0  0
 17 18  2  0  0  0  0
 17 23  1  0  0  0  0
 18 19  1  0  0  0  0
 19 20  1  0  0  0  0
 19 21  2  0  0  0  0
 21 22  1  0  0  0  0
 22 23  2  0  0  0  0
 22 24  1  0  0  0  0
 23 25  1  0  0  0  0
 24 28  2  0  0  0  0
 24 34  1  0  0  0  0
 25 26  2  0  0  0  0
 26 27  1  0  0  0  0
 26 28  1  0  0  0  0
 27 29  2  0  0  0  0
 27 30  1  0  0  0  0
 28 33  1  0  0  0  0
 30 31  2  0  0  0  0
 30 32  1  0  0  0  0
 32 33  1  0  0  0  0
 32 35  1  0  0  0  0
 35 36  1  0  0  0  0
 35 37  1  0  0  0  0
 35 38  1  0  0  0  0
 37 38  1  0  0  0  0
 38 39  2  0  0  0  0
 40 41  1  0  0  0  0
 41 42  1  0  0  0  0
 41 49  1  0  0  0  0
 42 43  1  0  0  0  0
 43 44  2  0  0  0  0
 43 45  1  0  0  0  0
 44 46  1  0  0  0  0
 45 47  1  0  0  0  0
 45 48  2  0  0  0  0
 47 49  1  0  0  0  0
 47 50  1  0  0  0  0
 49 51  2  0  0  0  0
 52 53  1  0  0  0  0
 52 54  1  0  0  0  0
 53 54  1  0  0  0  0
M  CHG  2  15   1  19   1
M  END