
 OpenBabel11212021553D

 54 62  0  0  1  0  0  0  0  0999 V2000
  -11.2570   15.9240   67.3030 C   0  0  0  0  0  0  0  0  0  0  0  0
  -10.6770   16.9100   68.0200 C   0  0  0  0  0  0  0  0  0  0  0  0
  -10.8270   17.0470   69.3970 O   0  0  0  0  0  0  0  0  0  0  0  0
  -11.5110   16.0670   70.0980 C   0  0  0  0  0  0  0  0  0  0  0  0
  -12.0530   14.9990   69.4920 C   0  0  0  0  0  0  0  0  0  0  0  0
  -12.0260   14.8370   68.0090 C   0  0  0  0  0  0  0  0  0  0  0  0
  -12.7550   13.9320   70.2910 C   0  0  0  0  0  0  0  0  0  0  0  0
  -12.0810   12.6950   70.0320 O   0  0  0  0  0  0  0  0  0  0  0  0
  -12.1900   11.6630   70.8870 C   0  0  0  0  0  0  0  0  0  0  0  0
  -11.6500   10.5410   70.5830 N   0  0  0  0  0  0  0  0  0  0  0  0
  -12.8400   11.8140   72.0520 O   0  0  0  0  0  0  0  0  0  0  0  0
  -13.4060   13.0540   72.4620 C   0  0  0  0  0  0  0  0  0  0  0  0
  -12.7720   14.1880   71.7570 C   0  0  0  0  0  0  0  0  0  0  0  0
  -12.2440   15.3100   72.2960 C   0  0  0  0  0  0  0  0  0  0  0  0
  -11.6200   16.2210   71.4570 N   0  0  0  0  0  0  0  0  0  0  0  0
  -14.7910   13.0550   72.1650 O   0  0  0  0  0  0  0  0  0  0  0  0
   -9.7910   17.9190   67.4190 C   0  0  0  0  0  0  0  0  0  0  0  0
  -10.3950   18.6990   66.5010 N   0  0  0  0  0  0  0  0  0  0  0  0
   -9.6480   19.6650   65.9680 C   0  0  0  0  0  0  0  0  0  0  0  0
  -10.2230   20.4450   65.0430 F   0  0  0  0  0  0  0  0  0  0  0  0
   -8.3690   19.9160   66.2680 N   0  0  0  0  0  0  0  0  0  0  0  0
   -7.7760   19.1250   67.1720 C   0  0  0  0  0  0  0  0  0  0  0  0
   -8.4450   18.0580   67.7860 C   0  0  0  0  0  0  0  0  0  0  0  0
   -6.4460   19.3540   67.5350 C   0  0  0  0  0  0  0  0  0  0  0  0
   -7.7500   17.2120   68.6880 C   0  0  0  0  0  0  0  0  0  0  0  0
   -6.4120   17.4580   69.0000 C   0  0  0  0  0  0  0  0  0  0  0  0
   -5.6730   16.5430   69.8780 C   0  0  0  0  0  0  0  0  0  0  0  0
   -5.7630   18.5570   68.4590 C   0  0  0  0  0  0  0  0  0  0  0  0
   -6.1780   15.5260   70.3270 O   0  0  0  0  0  0  0  0  0  0  0  0
   -4.2350   16.9070   70.1720 C   0  0  0  0  0  0  0  0  0  0  0  0
   -3.4410   16.0740   70.5830 O   0  0  0  0  0  0  0  0  0  0  0  0
   -3.9160   18.3640   69.9500 C   0  0  0  0  0  0  0  0  0  0  0  0
   -4.4760   18.9150   68.7530 O   0  0  0  0  0  0  0  0  0  0  0  0
   -5.7890   20.3910   66.9860 F   0  0  0  0  0  0  0  0  0  0  0  0
   -4.2980   19.1830   71.1410 C   0  0  0  0  0  0  0  0  0  0  0  0
   -5.2590   18.5960   72.0550 O   0  0  0  0  0  0  0  0  0  0  0  0
   -3.2120   19.8800   71.7490 O   0  0  0  0  0  0  0  0  0  0  0  0
   -4.1850   20.6440   71.2040 C   0  0  0  0  0  0  0  0  0  0  0  0
   -4.9070   21.4490   71.7340 O   0  0  0  0  0  0  0  0  0  0  0  0
  -11.0870   15.8280   65.9240 O   0  0  0  0  0  0  0  0  0  0  0  0
  -10.6920   14.5410   65.4330 C   0  0  0  0  0  0  0  0  0  0  0  0
  -10.1400   13.7470   66.4830 O   0  0  0  0  0  0  0  0  0  0  0  0
   -9.7200   12.4780   66.1280 C   0  0  0  0  0  0  0  0  0  0  0  0
   -8.7620   11.8610   66.8310 C   0  0  0  0  0  0  0  0  0  0  0  0
  -10.3480   11.7260   65.0030 C   0  0  0  0  0  0  0  0  0  0  0  0
   -8.1250   12.4610   67.8850 O   0  0  0  0  0  0  0  0  0  0  0  0
  -11.5010   12.4480   64.3370 C   0  0  0  0  0  0  0  0  0  0  0  0
   -9.9710   10.6310   64.6200 O   0  0  0  0  0  0  0  0  0  0  0  0
  -11.8830   13.8170   64.8370 C   0  0  0  0  0  0  0  0  0  0  0  0
  -12.0790   11.9600   63.3810 O   0  0  0  0  0  0  0  0  0  0  0  0
  -13.0270   14.2320   64.7350 O   0  0  0  0  0  0  0  0  0  0  0  0
  -12.2690   15.6490   73.7360 C   0  0  0  0  0  0  0  0  0  0  0  0
  -12.1370   17.0050   74.1920 O   0  0  0  0  0  0  0  0  0  0  0  0
  -13.3890   16.3120   74.3480 O   0  0  0  0  0  0  0  0  0  0  0  0
  1 40  1  0  0  0  0
  1  2  2  0  0  0  0
  1  6  1  0  0  0  0
  2  3  1  0  0  0  0
  2 17  1  0  0  0  0
  3  4  1  0  0  0  0
  4  5  2  0  0  0  0
  4 15  1  0  0  0  0
  5  6  1  0  0  0  0
  5  7  1  0  0  0  0
  7  8  1  0  0  0  0
  7 13  1  0  0  0  0
  8  9  1  0  0  0  0
  9 10  2  0  0  0  0
  9 11  1  0  0  0  0
 11 12  1  0  0  0  0
 12 13  1  0  0  0  0
 12 16  1  0  0  0  0
 13 14  2  0  0  0  0
 14 15  1  0  0  0  0
 14 52  1  0  0  0  0
 17 18  2  0  0  0  0
 17 23  1  0  0  0  0
 18 19  1  0  0  0  0
 19 20  1  0  0  0  0
 19 21  2  0  0  0  0
 21 22  1  0  0  0  0
 22 23  2  0  0  0  0
 22 24  1  0  0  0  0
 23 25  1  0  0  0  0
 24 28  2  0  0  0  0
 24 34  1  0  0  0  0
 25 26  2  0  0  0  0
 26 27  1  0  0  0  0
 26 28  1  0  0  0  0
 27 29  2  0  0  0  0
 27 30  1  0  0  0  0
 28 33  1  0  0  0  0
 30 31  2  0  0  0  0
 30 32  1  0  0  0  0
 32 33  1  0  0  0  0
 32 35  1  0  0  0  0
 35 36  1  0  0  0  0
 35 37  1  0  0  0  0
 35 38  1  0  0  0  0
 37 38  1  0  0  0  0
 38 39  2  0  0  0  0
 40 41  1  0  0  0  0
 41 42  1  0  0  0  0
 41 49  1  0  0  0  0
 42 43  1  0  0  0  0
 43 44  2  0  0  0  0
 43 45  1  0  0  0  0
 44 46  1  0  0  0  0
 45 47  1  0  0  0  0
 45 48  2  0  0  0  0
 47 49  1  0  0  0  0
 47 50  2  0  0  0  0
 49 51  2  0  0  0  0
 52 53  1  0  0  0  0
 52 54  1  0  0  0  0
 53 54  1  0  0  0  0
M  END
