
 OpenBabel11152012203D

 52 61  0  0  1  0  0  0  0  0999 V2000
   -9.9350   15.3800   67.1160 C   0  0  0  0  0  0  0  0  0  0  0  0
   -9.9440   15.4200   68.4680 C   0  0  0  0  0  0  0  0  0  0  0  0
   -8.8790   15.9320   69.2060 O   0  0  0  0  0  0  0  0  0  0  0  0
   -7.8270   16.5450   68.5550 C   0  0  0  0  0  0  0  0  0  0  0  0
   -7.7040   16.5390   67.2190 C   0  0  0  0  0  0  0  0  0  0  0  0
   -8.7280   15.8820   66.3500 C   0  0  0  0  0  0  0  0  0  0  0  0
   -6.5140   17.2060   66.5600 C   0  0  0  0  0  0  0  0  0  0  0  0
   -7.0220   18.1290   65.5960 O   0  0  0  0  0  0  0  0  0  0  0  0
   -6.2610   19.1250   65.0820 C   0  0  0  0  0  0  0  0  0  0  0  0
   -6.6510   19.7860   64.1280 O   0  0  0  0  0  0  0  0  0  0  0  0
   -5.0790   19.3930   65.6850 O   0  0  0  0  0  0  0  0  0  0  0  0
   -4.5660   18.6550   66.7840 C   0  0  0  0  0  0  0  0  0  0  0  0
   -5.6310   17.9390   67.5100 C   0  0  0  0  0  0  0  0  0  0  0  0
   -5.8370   17.9180   68.8450 C   0  0  0  0  0  0  0  0  0  0  0  0
   -6.9030   17.1870   69.3380 N   0  0  0  0  0  0  0  0  0  0  0  0
   -3.6320   17.7040   66.3080 O   0  0  0  0  0  0  0  0  0  0  0  0
  -11.0860   15.0410   69.3280 C   0  0  0  0  0  0  0  0  0  0  0  0
  -11.8300   16.1020   69.7180 N   0  0  0  0  0  0  0  0  0  0  0  0
  -12.8610   15.9200   70.4930 N   0  0  0  0  0  0  0  0  0  0  0  0
  -13.2140   14.7330   70.9140 N   0  0  0  0  0  0  0  0  0  0  0  0
  -12.5090   13.6540   70.5660 C   0  0  0  0  0  0  0  0  0  0  0  0
  -11.3790   13.7440   69.7580 C   0  0  0  0  0  0  0  0  0  0  0  0
  -12.9250   12.4070   71.0330 C   0  0  0  0  0  0  0  0  0  0  0  0
  -10.6560   12.5620   69.4630 C   0  0  0  0  0  0  0  0  0  0  0  0
  -11.1320   11.3230   69.9210 C   0  0  0  0  0  0  0  0  0  0  0  0
  -12.2810   11.2210   70.7200 C   0  0  0  0  0  0  0  0  0  0  0  0
  -10.5580   10.1250   69.6270 C   0  0  0  0  0  0  0  0  0  0  0  0
  -12.7720   10.0230   71.1640 N   0  0  0  0  0  0  0  0  0  0  0  0
  -12.1780    8.8410   70.8010 C   0  0  0  0  0  0  0  0  0  0  0  0
  -11.0590    8.9330   70.0450 C   0  0  0  0  0  0  0  0  0  0  0  0
  -10.1220    8.2470   69.4220 O   0  0  0  0  0  0  0  0  0  0  0  0
   -9.5730    9.5510   68.9620 O   0  0  0  0  0  0  0  0  0  0  0  0
  -12.7630    7.5240   71.2160 C   0  0  0  0  0  0  0  0  0  0  0  0
  -14.2000    7.3870   71.2440 O   0  0  0  0  0  0  0  0  0  0  0  0
  -12.0880    6.3130   70.8170 O   0  0  0  0  0  0  0  0  0  0  0  0
  -11.9950    6.6590   72.1070 C   0  0  0  0  0  0  0  0  0  0  0  0
  -11.0290    6.8340   72.8160 O   0  0  0  0  0  0  0  0  0  0  0  0
  -11.0670   14.9950   66.4060 O   0  0  0  0  0  0  0  0  0  0  0  0
  -10.9130   13.9340   65.4580 C   0  0  0  0  0  0  0  0  0  0  0  0
  -10.2530   12.8160   66.0520 O   0  0  0  0  0  0  0  0  0  0  0  0
   -9.9950   11.7730   65.1820 C   0  0  0  0  0  0  0  0  0  0  0  0
   -8.9480   10.9620   65.3840 C   0  0  0  0  0  0  0  0  0  0  0  0
  -10.8860   11.4910   64.0210 C   0  0  0  0  0  0  0  0  0  0  0  0
   -8.0760   11.1290   66.4290 O   0  0  0  0  0  0  0  0  0  0  0  0
  -12.1570   12.3180   64.0050 C   0  0  0  0  0  0  0  0  0  0  0  0
  -10.6190   10.6990   63.1330 O   0  0  0  0  0  0  0  0  0  0  0  0
  -12.2740   13.4840   64.9560 C   0  0  0  0  0  0  0  0  0  0  0  0
  -13.0520   12.0700   63.2130 O   0  0  0  0  0  0  0  0  0  0  0  0
  -13.3570   13.9730   65.2350 O   0  0  0  0  0  0  0  0  0  0  0  0
   -5.0060   18.6260   69.8440 C   0  0  0  0  0  0  0  0  0  0  0  0
   -4.9790   18.2350   71.2280 O   0  0  0  0  0  0  0  0  0  0  0  0
   -3.8190   18.0360   70.3960 O   0  0  0  0  0  0  0  0  0  0  0  0
  1 38  1  0  0  0  0
  1  2  2  0  0  0  0
  1  6  1  0  0  0  0
  2  3  1  0  0  0  0
  2 17  1  0  0  0  0
  3  4  1  0  0  0  0
  4  5  2  0  0  0  0
  4 15  1  0  0  0  0
  5  6  1  0  0  0  0
  5  7  1  0  0  0  0
  7  8  1  0  0  0  0
  7 13  1  0  0  0  0
  8  9  1  0  0  0  0
  9 10  2  0  0  0  0
  9 11  1  0  0  0  0
 11 12  1  0  0  0  0
 12 13  1  0  0  0  0
 12 16  1  0  0  0  0
 13 14  2  0  0  0  0
 14 15  1  0  0  0  0
 14 50  1  0  0  0  0
 17 18  2  0  0  0  0
 17 22  1  0  0  0  0
 18 19  1  0  0  0  0
 19 20  2  0  0  0  0
 20 21  1  0  0  0  0
 21 22  2  0  0  0  0
 21 23  1  0  0  0  0
 22 24  1  0  0  0  0
 23 26  2  0  0  0  0
 24 25  2  0  0  0  0
 25 26  1  0  0  0  0
 25 27  1  0  0  0  0
 26 28  1  0  0  0  0
 27 30  2  0  0  0  0
 27 32  1  0  0  0  0
 28 29  2  0  0  0  0
 29 30  1  0  0  0  0
 29 33  1  0  0  0  0
 30 31  1  0  0  0  0
 31 32  1  0  0  0  0
 33 34  1  0  0  0  0
 33 35  1  0  0  0  0
 33 36  1  0  0  0  0
 35 36  1  0  0  0  0
 36 37  2  0  0  0  0
 38 39  1  0  0  0  0
 39 40  1  0  0  0  0
 39 47  1  0  0  0  0
 40 41  1  0  0  0  0
 41 42  2  0  0  0  0
 41 43  1  0  0  0  0
 42 44  1  0  0  0  0
 43 45  1  0  0  0  0
 43 46  2  0  0  0  0
 45 47  1  0  0  0  0
 45 48  2  0  0  0  0
 47 49  2  0  0  0  0
 50 51  1  0  0  0  0
 50 52  1  0  0  0  0
 51 52  1  0  0  0  0
M  END
