
 OpenBabel11222001293D

 54 62  0  0  1  0  0  0  0  0999 V2000
  -11.0900   15.5400   67.3460 C   0  0  0  0  0  0  0  0  0  0  0  0
  -10.4400   16.5250   68.0070 C   0  0  0  0  0  0  0  0  0  0  0  0
  -10.5600   16.7120   69.3930 O   0  0  0  0  0  0  0  0  0  0  0  0
  -11.3340   15.8190   70.1490 C   0  0  0  0  0  0  0  0  0  0  0  0
  -11.9150   14.7510   69.5750 C   0  0  0  0  0  0  0  0  0  0  0  0
  -11.8800   14.5030   68.1050 C   0  0  0  0  0  0  0  0  0  0  0  0
  -12.6920   13.7320   70.3530 C   0  0  0  0  0  0  0  0  0  0  0  0
  -11.9560   12.5250   70.2650 O   0  0  0  0  0  0  0  0  0  0  0  0
  -12.3720   11.4570   70.9930 C   0  0  0  0  0  0  0  0  0  0  0  0
  -11.9250   10.3410   70.7860 O   0  0  0  0  0  0  0  0  0  0  0  0
  -13.2770   11.7120   71.9680 O   0  0  0  0  0  0  0  0  0  0  0  0
  -13.5590   13.0130   72.4730 C   0  0  0  0  0  0  0  0  0  0  0  0
  -12.7770   14.0750   71.7860 C   0  0  0  0  0  0  0  0  0  0  0  0
  -12.2070   15.1830   72.3110 C   0  0  0  0  0  0  0  0  0  0  0  0
  -11.4720   16.0470   71.5010 O   0  0  0  0  0  0  0  0  0  0  0  0
  -14.9110   13.3270   72.2180 O   0  0  0  0  0  0  0  0  0  0  0  0
   -9.4700   17.4390   67.3420 C   0  0  0  0  0  0  0  0  0  0  0  0
   -9.9930   18.5420   66.6630 C   0  0  0  0  0  0  0  0  0  0  0  0
   -9.1920   19.4000   66.0210 N   0  0  0  0  0  0  0  0  0  0  0  0
   -9.7360   20.4290   65.3430 F   0  0  0  0  0  0  0  0  0  0  0  0
   -7.8820   19.2690   66.0080 N   0  0  0  0  0  0  0  0  0  0  0  0
   -7.3100   18.2470   66.6490 C   0  0  0  0  0  0  0  0  0  0  0  0
   -8.0660   17.2770   67.3400 C   0  0  0  0  0  0  0  0  0  0  0  0
   -5.9210   18.1330   66.6260 C   0  0  0  0  0  0  0  0  0  0  0  0
   -7.3770   16.2050   67.9630 C   0  0  0  0  0  0  0  0  0  0  0  0
   -5.9800   16.0850   67.8700 C   0  0  0  0  0  0  0  0  0  0  0  0
   -5.2640   14.8970   68.3610 C   0  0  0  0  0  0  0  0  0  0  0  0
   -5.2400   17.0730   67.2300 C   0  0  0  0  0  0  0  0  0  0  0  0
   -5.7870   13.8600   68.9280 N   0  0  0  0  0  0  0  0  0  0  0  0
   -3.7740   14.8790   68.1490 C   0  0  0  0  0  0  0  0  0  0  0  0
   -3.1310   13.7560   68.1630 N   0  0  0  0  0  0  0  0  0  0  0  0
   -3.1250   16.2280   67.9900 C   0  0  0  0  0  0  0  0  0  0  0  0
   -3.8790   17.0770   67.1060 O   0  0  0  0  0  0  0  0  0  0  0  0
   -5.2150   19.0790   65.9860 F   0  0  0  0  0  0  0  0  0  0  0  0
   -2.8720   16.9100   69.3110 C   0  0  0  0  0  0  0  0  0  0  0  0
   -3.1380   16.1320   70.5000 O   0  0  0  0  0  0  0  0  0  0  0  0
   -1.5320   17.6930   69.3760 O   0  0  0  0  0  0  0  0  0  0  0  0
   -2.6900   18.2780   69.4710 C   0  0  0  0  0  0  0  0  0  0  0  0
   -3.1840   19.4330   69.6500 N   0  0  0  0  0  0  0  0  0  0  0  0
  -11.0100   15.4280   65.9660 O   0  0  0  0  0  0  0  0  0  0  0  0
  -10.8270   14.1190   65.3730 C   0  0  0  0  0  0  0  0  0  0  0  0
  -10.1600   13.2320   66.2710 O   0  0  0  0  0  0  0  0  0  0  0  0
   -9.7480   12.0360   65.6960 C   0  0  0  0  0  0  0  0  0  0  0  0
   -8.6070   11.4440   66.0740 C   0  0  0  0  0  0  0  0  0  0  0  0
  -10.5570   11.3520   64.6390 C   0  0  0  0  0  0  0  0  0  0  0  0
   -7.7550   11.9890   66.9990 O   0  0  0  0  0  0  0  0  0  0  0  0
  -11.7750   12.1250   64.1770 C   0  0  0  0  0  0  0  0  0  0  0  0
  -10.2670   10.2770   64.1430 O   0  0  0  0  0  0  0  0  0  0  0  0
  -12.0770   13.4590   64.7930 C   0  0  0  0  0  0  0  0  0  0  0  0
  -12.4900   11.7280   63.2730 O   0  0  0  0  0  0  0  0  0  0  0  0
  -13.2150   13.9110   64.8330 O   0  0  0  0  0  0  0  0  0  0  0  0
  -12.2810   15.5650   73.7410 C   0  0  0  0  0  0  0  0  0  0  0  0
  -12.0820   16.9290   74.1360 O   0  0  0  0  0  0  0  0  0  0  0  0
  -13.3940   16.3430   74.2230 O   0  0  0  0  0  0  0  0  0  0  0  0
  1 40  1  0  0  0  0
  1  2  2  0  0  0  0
  1  6  1  0  0  0  0
  2  3  1  0  0  0  0
  2 17  1  0  0  0  0
  3  4  1  0  0  0  0
  4  5  2  0  0  0  0
  4 15  1  0  0  0  0
  5  6  1  0  0  0  0
  5  7  1  0  0  0  0
  7  8  1  0  0  0  0
  7 13  1  0  0  0  0
  8  9  1  0  0  0  0
  9 10  2  0  0  0  0
  9 11  1  0  0  0  0
 11 12  1  0  0  0  0
 12 13  1  0  0  0  0
 12 16  1  0  0  0  0
 13 14  2  0  0  0  0
 14 15  1  0  0  0  0
 14 52  1  0  0  0  0
 17 18  2  0  0  0  0
 17 23  1  0  0  0  0
 18 19  1  0  0  0  0
 19 20  1  0  0  0  0
 19 21  2  0  0  0  0
 21 22  1  0  0  0  0
 22 23  2  0  0  0  0
 22 24  1  0  0  0  0
 23 25  1  0  0  0  0
 24 28  2  0  0  0  0
 24 34  1  0  0  0  0
 25 26  2  0  0  0  0
 26 27  1  0  0  0  0
 26 28  1  0  0  0  0
 27 29  2  0  0  0  0
 27 30  1  0  0  0  0
 28 33  1  0  0  0  0
 30 31  2  0  0  0  0
 30 32  1  0  0  0  0
 32 33  1  0  0  0  0
 32 35  1  0  0  0  0
 35 36  1  0  0  0  0
 35 37  1  0  0  0  0
 35 38  1  0  0  0  0
 37 38  1  0  0  0  0
 38 39  2  0  0  0  0
 40 41  1  0  0  0  0
 41 42  1  0  0  0  0
 41 49  1  0  0  0  0
 42 43  1  0  0  0  0
 43 44  2  0  0  0  0
 43 45  1  0  0  0  0
 44 46  1  0  0  0  0
 45 47  1  0  0  0  0
 45 48  2  0  0  0  0
 47 49  1  0  0  0  0
 47 50  2  0  0  0  0
 49 51  2  0  0  0  0
 52 53  1  0  0  0  0
 52 54  1  0  0  0  0
 53 54  1  0  0  0  0
M  CHG  2  15   1  19   1
M  END