
 OpenBabel10232017193D

 88102  0  0  1  0  0  0  0  0999 V2000
   -8.8070    9.2430   64.9210 O   0  0  0  0  0  0  0  0  0  0  0  0
   -8.9030    9.0270   66.3460 C   0  0  0  0  0  0  0  0  0  0  0  0
  -10.3550    9.1220   66.8600 C   0  0  0  0  0  0  0  0  0  0  0  0
  -10.8940   10.4430   66.6440 O   0  0  0  0  0  0  0  0  0  0  0  0
  -10.0720   11.5290   66.7100 C   0  0  0  0  0  0  0  0  0  0  0  0
   -8.7180   11.4430   67.0040 C   0  0  0  0  0  0  0  0  0  0  0  0
   -8.0380   10.1020   67.0250 C   0  0  0  0  0  0  0  0  0  0  0  0
   -6.7820   10.2360   66.3200 O   0  0  0  0  0  0  0  0  0  0  0  0
   -8.0170   12.6330   67.2350 C   0  0  0  0  0  0  0  0  0  0  0  0
   -8.5670   13.9190   67.0090 C   0  0  0  0  0  0  0  0  0  0  0  0
   -9.8670   13.9930   66.4620 C   0  0  0  0  0  0  0  0  0  0  0  0
  -10.6170   12.7850   66.4220 C   0  0  0  0  0  0  0  0  0  0  0  0
  -11.9140   12.8320   66.0670 F   0  0  0  0  0  0  0  0  0  0  0  0
  -10.2800   15.2640   66.0070 C   0  0  0  0  0  0  0  0  0  0  0  0
  -11.8350   15.5400   65.3020 Cl  0  0  0  0  0  0  0  0  0  0  0  0
   -9.4280   16.3960   66.0430 C   0  0  0  0  0  0  0  0  0  0  0  0
   -8.1970   16.4040   66.7200 C   0  0  0  0  0  0  0  0  0  0  0  0
   -7.8680   15.1370   67.2760 C   0  0  0  0  0  0  0  0  0  0  0  0
   -6.7020   15.0300   68.5630 Cl  0  0  0  0  0  0  0  0  0  0  0  0
  -10.5410    8.6120   68.3400 C   0  0  0  0  0  0  0  0  0  0  0  0
  -10.3050    9.7950   69.3150 C   0  0  0  0  0  0  0  0  0  0  0  0
  -10.3370    9.4440   70.7990 C   0  0  0  0  0  0  0  0  0  0  0  0
  -12.0280    8.9860   71.4170 P   0  0  0  0  0  0  0  0  0  0  0  0
   -9.5230    8.2320   71.1260 C   0  0  0  0  0  0  0  0  0  0  0  0
   -9.2630    7.2490   70.1760 C   0  0  0  0  0  0  0  0  0  0  0  0
   -8.9590    8.0900   72.4130 C   0  0  0  0  0  0  0  0  0  0  0  0
   -9.6090    7.4070   68.6960 C   0  0  0  0  0  0  0  0  0  0  0  0
   -8.5830    6.0770   70.5820 C   0  0  0  0  0  0  0  0  0  0  0  0
  -10.1380    6.0610   68.1220 C   0  0  0  0  0  0  0  0  0  0  0  0
  -11.5000    6.0000   68.2730 F   0  0  0  0  0  0  0  0  0  0  0  0
   -9.5300    4.7890   68.7310 C   0  0  0  0  0  0  0  0  0  0  0  0
   -8.2310    5.0980   69.4750 C   0  0  0  0  0  0  0  0  0  0  0  0
   -7.4880    3.8570   69.9630 C   0  0  0  0  0  0  0  0  0  0  0  0
   -8.0960    3.3480   71.2540 C   0  0  0  0  0  0  0  0  0  0  0  0
   -7.9350    4.3940   72.3670 C   0  0  0  0  0  0  0  0  0  0  0  0
   -8.2570    5.8320   71.9470 C   0  0  0  0  0  0  0  0  0  0  0  0
   -9.0290    3.8810   73.7010 Cl  0  0  0  0  0  0  0  0  0  0  0  0
   -8.3040    6.9190   72.8640 C   0  0  0  0  0  0  0  0  0  0  0  0
   -7.7140    6.9160   74.2500 C   0  0  0  0  0  0  0  0  0  0  0  0
   -6.3180    6.9610   74.4670 C   0  0  0  0  0  0  0  0  0  0  0  0
   -5.7420    6.8580   75.7560 C   0  0  0  0  0  0  0  0  0  0  0  0
   -4.2790    6.4330   75.8950 C   0  0  0  0  0  0  0  0  0  0  0  0
   -6.5690    6.9230   76.8820 C   0  0  0  0  0  0  0  0  0  0  0  0
   -4.2310    4.9260   75.5430 C   0  0  0  0  0  0  0  0  0  0  0  0
   -3.6650    6.7160   77.2920 C   0  0  0  0  0  0  0  0  0  0  0  0
   -2.8660    4.2890   75.7470 C   0  0  0  0  0  0  0  0  0  0  0  0
   -2.3440    4.5090   77.1690 C   0  0  0  0  0  0  0  0  0  0  0  0
   -2.2740    6.0290   77.4570 C   0  0  0  0  0  0  0  0  0  0  0  0
   -1.0010    3.7910   77.3330 C   0  0  0  0  0  0  0  0  0  0  0  0
   -1.6450    6.3340   78.8220 C   0  0  0  0  0  0  0  0  0  0  0  0
   -4.6580    6.3450   78.4120 C   0  0  0  0  0  0  0  0  0  0  0  0
   -5.9990    7.0740   78.2720 C   0  0  0  0  0  0  0  0  0  0  0  0
   -5.8750    8.5640   78.6210 C   0  0  0  0  0  0  0  0  0  0  0  0
   -7.9500    6.8400   76.6950 C   0  0  0  0  0  0  0  0  0  0  0  0
   -8.4860    6.7500   75.4100 C   0  0  0  0  0  0  0  0  0  0  0  0
   -9.7860    6.4300   75.3260 F   0  0  0  0  0  0  0  0  0  0  0  0
   -7.3350   17.6700   66.7960 C   0  0  0  0  0  0  0  0  0  0  0  0
   -7.0000   18.4030   65.6170 C   0  0  0  0  0  0  0  0  0  0  0  0
   -6.0160   19.4950   65.5400 C   0  0  0  0  0  0  0  0  0  0  0  0
   -5.2220   20.1930   64.3920 C   0  0  0  0  0  0  0  0  0  0  0  0
   -5.7860   20.0280   66.8300 N   0  0  0  0  0  0  0  0  0  0  0  0
   -4.3040   21.2060   64.7210 C   0  0  0  0  0  0  0  0  0  0  0  0
   -3.2110   21.5440   63.8810 N   0  0  0  0  0  0  0  0  0  0  0  0
   -4.3350   21.6740   66.0250 C   0  0  0  0  0  0  0  0  0  0  0  0
   -5.0740   21.1400   66.9970 N   0  0  0  0  0  0  0  0  0  0  0  0
   -6.2630   19.4450   67.9890 N   0  0  0  0  0  0  0  0  0  0  0  0
   -6.8280   18.2070   68.0060 C   0  0  0  0  0  0  0  0  0  0  0  0
   -6.1200   20.3340   69.4690 Cl  0  0  0  0  0  0  0  0  0  0  0  0
   -6.8450   17.4750   69.3270 C   0  0  0  0  0  0  0  0  0  0  0  0
   -5.2690   19.8490   62.7920 N   0  0  0  0  0  0  0  0  0  0  0  0
   -5.8740   20.6890   61.8140 N   0  0  0  0  0  0  0  0  0  0  0  0
   -7.0870   21.8500   62.2320 Cl  0  0  0  0  0  0  0  0  0  0  0  0
   -5.7680   20.4420   60.4420 C   0  0  0  0  0  0  0  0  0  0  0  0
   -5.2300   19.2500   59.8790 C   0  0  0  0  0  0  0  0  0  0  0  0
   -4.7500   18.3590   60.8240 C   0  0  0  0  0  0  0  0  0  0  0  0
   -5.1670   18.8620   58.4910 N   0  0  0  0  0  0  0  0  0  0  0  0
   -4.6790   18.7170   62.2540 C   0  0  0  0  0  0  0  0  0  0  0  0
   -4.3600   17.1610   60.3770 N   0  0  0  0  0  0  0  0  0  0  0  0
   -3.9530   17.8930   63.0980 N   0  0  0  0  0  0  0  0  0  0  0  0
   -4.4290   16.7180   59.1000 N   0  0  0  0  0  0  0  0  0  0  0  0
   -4.8020   17.5520   58.0690 C   0  0  0  0  0  0  0  0  0  0  0  0
   -3.9750   15.0750   58.9330 Cl  0  0  0  0  0  0  0  0  0  0  0  0
   -4.8580   17.2760   56.7150 N   0  0  0  0  0  0  0  0  0  0  0  0
   -5.1200   18.2360   55.8010 C   0  0  0  0  0  0  0  0  0  0  0  0
   -4.6330   15.7180   56.0300 Cl  0  0  0  0  0  0  0  0  0  0  0  0
   -5.3690   19.4930   56.1930 N   0  0  0  0  0  0  0  0  0  0  0  0
   -5.4400   19.7940   57.5180 N   0  0  0  0  0  0  0  0  0  0  0  0
   -5.5740   20.5640   55.1520 C   0  0  0  0  0  0  0  0  0  0  0  0
  1  2  1  0  0  0  0
  2  3  1  0  0  0  0
  2  7  1  0  0  0  0
  3  4  1  0  0  0  0
  3 20  1  0  0  0  0
  4  5  1  0  0  0  0
  5  6  2  0  0  0  0
  5 12  1  0  0  0  0
  6  7  1  0  0  0  0
  6  9  1  0  0  0  0
  7  8  1  0  0  0  0
  9 10  2  0  0  0  0
 10 11  1  0  0  0  0
 10 18  1  0  0  0  0
 11 12  2  0  0  0  0
 11 14  1  0  0  0  0
 12 13  1  0  0  0  0
 14 15  1  0  0  0  0
 14 16  2  0  0  0  0
 16 17  1  0  0  0  0
 17 18  2  0  0  0  0
 17 57  1  0  0  0  0
 18 19  1  0  0  0  0
 20 21  1  0  0  0  0
 20 27  1  0  0  0  0
 21 22  1  0  0  0  0
 22 23  1  0  0  0  0
 22 24  1  0  0  0  0
 24 25  2  0  0  0  0
 24 26  1  0  0  0  0
 25 27  1  0  0  0  0
 25 28  1  0  0  0  0
 26 38  2  0  0  0  0
 27 29  1  0  0  0  0
 28 32  1  0  0  0  0
 28 36  2  0  0  0  0
 29 30  1  0  0  0  0
 29 31  1  0  0  0  0
 31 32  1  0  0  0  0
 32 33  1  0  0  0  0
 33 34  1  0  0  0  0
 34 35  1  0  0  0  0
 35 36  1  0  0  0  0
 35 37  1  0  0  0  0
 36 38  1  0  0  0  0
 38 39  1  0  0  0  0
 39 40  2  0  0  0  0
 39 55  1  0  0  0  0
 40 41  1  0  0  0  0
 41 42  1  0  0  0  0
 41 43  2  0  0  0  0
 42 44  1  0  0  0  0
 42 45  1  0  0  0  0
 43 52  1  0  0  0  0
 43 54  1  0  0  0  0
 44 46  1  0  0  0  0
 45 48  1  0  0  0  0
 45 51  1  0  0  0  0
 46 47  1  0  0  0  0
 47 48  1  0  0  0  0
 47 49  1  0  0  0  0
 48 50  1  0  0  0  0
 51 52  1  0  0  0  0
 52 53  1  0  0  0  0
 54 55  2  0  0  0  0
 55 56  1  0  0  0  0
 57 58  2  0  0  0  0
 57 67  1  0  0  0  0
 58 59  1  0  0  0  0
 59 60  2  0  0  0  0
 59 61  1  0  0  0  0
 60 62  1  0  0  0  0
 60 70  1  0  0  0  0
 61 65  2  0  0  0  0
 61 66  1  0  0  0  0
 62 63  1  0  0  0  0
 62 64  2  0  0  0  0
 64 65  1  0  0  0  0
 66 67  2  0  0  0  0
 66 68  1  0  0  0  0
 67 69  1  0  0  0  0
 70 71  2  0  0  0  0
 70 77  1  0  0  0  0
 71 72  1  0  0  0  0
 71 73  1  0  0  0  0
 73 74  2  0  0  0  0
 74 75  1  0  0  0  0
 74 76  1  0  0  0  0
 75 77  2  0  0  0  0
 75 78  1  0  0  0  0
 76 81  2  0  0  0  0
 76 87  1  0  0  0  0
 77 79  1  0  0  0  0
 78 80  2  0  0  0  0
 80 81  1  0  0  0  0
 80 82  1  0  0  0  0
 81 83  1  0  0  0  0
 83 84  2  0  0  0  0
 83 85  1  0  0  0  0
 84 86  1  0  0  0  0
 86 87  2  0  0  0  0
 86 88  1  0  0  0  0
M  CHG  8  61   1  66   1  70   1  71   1  80   1  76   1  86   1  83   1
M  END