
 OpenBabel09262021433D

 52 60  0  0  1  0  0  0  0  0999 V2000
   -9.7850   15.5190   67.8350 C   0  0  0  0  0  0  0  0  0  0  0  0
   -9.7880   16.7400   68.4170 C   0  0  0  0  0  0  0  0  0  0  0  0
  -10.3730   16.9860   69.6630 O   0  0  0  0  0  0  0  0  0  0  0  0
  -11.0670   15.9640   70.3040 C   0  0  0  0  0  0  0  0  0  0  0  0
  -11.0850   14.7150   69.8150 C   0  0  0  0  0  0  0  0  0  0  0  0
  -10.3930   14.3330   68.5550 C   0  0  0  0  0  0  0  0  0  0  0  0
  -11.8980   13.6870   70.5260 C   0  0  0  0  0  0  0  0  0  0  0  0
  -11.9700   12.4760   70.0800 N   0  0  0  0  0  0  0  0  0  0  0  0
  -12.7640   11.5590   70.7410 C   0  0  0  0  0  0  0  0  0  0  0  0
  -12.8650   10.4360   70.2640 O   0  0  0  0  0  0  0  0  0  0  0  0
  -13.4630   11.8500   71.8970 N   0  0  0  0  0  0  0  0  0  0  0  0
  -13.4020   13.0460   72.3690 C   0  0  0  0  0  0  0  0  0  0  0  0
  -12.6260   14.1140   71.7400 C   0  0  0  0  0  0  0  0  0  0  0  0
  -12.5380   15.3920   72.1620 C   0  0  0  0  0  0  0  0  0  0  0  0
  -11.7580   16.2920   71.4470 N   0  0  0  0  0  0  0  0  0  0  0  0
   -9.2020   17.9500   67.7880 C   0  0  0  0  0  0  0  0  0  0  0  0
  -10.1120   18.7490   67.1930 N   0  0  0  0  0  0  0  0  0  0  0  0
   -9.6340   19.8620   66.6340 C   0  0  0  0  0  0  0  0  0  0  0  0
   -8.3540   20.2480   66.6240 N   0  0  0  0  0  0  0  0  0  0  0  0
   -7.4400   19.4660   67.2250 C   0  0  0  0  0  0  0  0  0  0  0  0
   -7.8260   18.2600   67.8420 C   0  0  0  0  0  0  0  0  0  0  0  0
   -6.0740   19.8400   67.2650 C   0  0  0  0  0  0  0  0  0  0  0  0
   -6.8460   17.4560   68.4670 C   0  0  0  0  0  0  0  0  0  0  0  0
   -5.5090   17.8540   68.4990 C   0  0  0  0  0  0  0  0  0  0  0  0
   -4.5230   17.0050   69.1670 C   0  0  0  0  0  0  0  0  0  0  0  0
   -5.1090   19.0470   67.9220 C   0  0  0  0  0  0  0  0  0  0  0  0
   -4.7560   15.8400   69.4460 O   0  0  0  0  0  0  0  0  0  0  0  0
   -3.2250   17.6510   69.5720 C   0  0  0  0  0  0  0  0  0  0  0  0
   -2.4930   17.1200   70.4000 O   0  0  0  0  0  0  0  0  0  0  0  0
   -2.9970   19.0500   69.0470 C   0  0  0  0  0  0  0  0  0  0  0  0
   -3.8110   19.4890   67.9560 O   0  0  0  0  0  0  0  0  0  0  0  0
   -5.5460   21.3880   66.4830 S   0  0  0  0  0  0  0  0  0  0  0  0
   -3.0020   20.0150   70.2120 C   0  0  0  0  0  0  0  0  0  0  0  0
   -4.1930   20.0300   71.0340 O   0  0  0  0  0  0  0  0  0  0  0  0
   -1.7570   20.1690   70.9140 O   0  0  0  0  0  0  0  0  0  0  0  0
   -2.2090   21.2290   70.2300 C   0  0  0  0  0  0  0  0  0  0  0  0
   -1.7340   21.8880   69.3240 O   0  0  0  0  0  0  0  0  0  0  0  0
   -9.1820   15.3090   66.6000 O   0  0  0  0  0  0  0  0  0  0  0  0
   -9.9350   14.5630   65.6320 C   0  0  0  0  0  0  0  0  0  0  0  0
  -10.6320   13.4720   66.2380 O   0  0  0  0  0  0  0  0  0  0  0  0
  -11.2400   12.6550   65.3000 C   0  0  0  0  0  0  0  0  0  0  0  0
  -11.1550   11.3210   65.3740 C   0  0  0  0  0  0  0  0  0  0  0  0
  -12.0130   13.2680   64.1880 C   0  0  0  0  0  0  0  0  0  0  0  0
  -10.4480   10.6750   66.3540 O   0  0  0  0  0  0  0  0  0  0  0  0
  -12.0590   14.7790   64.2720 C   0  0  0  0  0  0  0  0  0  0  0  0
  -12.5150   12.6510   63.2650 O   0  0  0  0  0  0  0  0  0  0  0  0
  -10.9020   15.5030   64.9240 C   0  0  0  0  0  0  0  0  0  0  0  0
  -13.0160   15.3920   63.8290 O   0  0  0  0  0  0  0  0  0  0  0  0
  -10.7520   16.7080   64.7780 O   0  0  0  0  0  0  0  0  0  0  0  0
  -13.2350   15.9290   73.3520 C   0  0  0  0  0  0  0  0  0  0  0  0
  -12.7690   15.6750   74.6880 O   0  0  0  0  0  0  0  0  0  0  0  0
  -12.6820   17.0000   74.1340 O   0  0  0  0  0  0  0  0  0  0  0  0
  1 38  1  0  0  0  0
  1  2  2  0  0  0  0
  1  6  1  0  0  0  0
  2  3  1  0  0  0  0
  2 16  1  0  0  0  0
  3  4  1  0  0  0  0
  4  5  2  0  0  0  0
  4 15  1  0  0  0  0
  5  6  1  0  0  0  0
  5  7  1  0  0  0  0
  7  8  2  0  0  0  0
  7 13  1  0  0  0  0
  8  9  1  0  0  0  0
  9 10  2  0  0  0  0
  9 11  1  0  0  0  0
 11 12  2  0  0  0  0
 12 13  1  0  0  0  0
 13 14  2  0  0  0  0
 14 15  1  0  0  0  0
 14 50  1  0  0  0  0
 16 17  2  0  0  0  0
 16 21  1  0  0  0  0
 17 18  1  0  0  0  0
 18 19  2  0  0  0  0
 19 20  1  0  0  0  0
 20 21  2  0  0  0  0
 20 22  1  0  0  0  0
 21 23  1  0  0  0  0
 22 26  2  0  0  0  0
 22 32  1  0  0  0  0
 23 24  2  0  0  0  0
 24 25  1  0  0  0  0
 24 26  1  0  0  0  0
 25 27  2  0  0  0  0
 25 28  1  0  0  0  0
 26 31  1  0  0  0  0
 28 29  2  0  0  0  0
 28 30  1  0  0  0  0
 30 31  1  0  0  0  0
 30 33  1  0  0  0  0
 33 34  1  0  0  0  0
 33 35  1  0  0  0  0
 33 36  1  0  0  0  0
 35 36  1  0  0  0  0
 36 37  2  0  0  0  0
 38 39  1  0  0  0  0
 39 40  1  0  0  0  0
 39 47  1  0  0  0  0
 40 41  1  0  0  0  0
 41 42  2  0  0  0  0
 41 43  1  0  0  0  0
 42 44  1  0  0  0  0
 43 45  1  0  0  0  0
 43 46  2  0  0  0  0
 45 47  1  0  0  0  0
 45 48  2  0  0  0  0
 47 49  2  0  0  0  0
 50 51  1  0  0  0  0
 50 52  1  0  0  0  0
 51 52  1  0  0  0  0
M  END
