
 OpenBabel11252003003D

 54 63  0  0  1  0  0  0  0  0999 V2000
  -11.0270   15.5700   67.3270 C   0  0  0  0  0  0  0  0  0  0  0  0
  -10.7180   16.7140   67.9810 C   0  0  0  0  0  0  0  0  0  0  0  0
  -11.1310   16.9180   69.3050 O   0  0  0  0  0  0  0  0  0  0  0  0
  -11.8310   15.9360   70.0030 C   0  0  0  0  0  0  0  0  0  0  0  0
  -12.1120   14.7470   69.4390 C   0  0  0  0  0  0  0  0  0  0  0  0
  -11.7840   14.4520   68.0040 C   0  0  0  0  0  0  0  0  0  0  0  0
  -12.7840   13.6410   70.2100 C   0  0  0  0  0  0  0  0  0  0  0  0
  -11.8620   12.5680   70.3000 O   0  0  0  0  0  0  0  0  0  0  0  0
  -12.2930   11.4580   70.9630 C   0  0  0  0  0  0  0  0  0  0  0  0
  -11.7320   10.3830   70.8390 O   0  0  0  0  0  0  0  0  0  0  0  0
  -13.4000   11.6380   71.7240 O   0  0  0  0  0  0  0  0  0  0  0  0
  -13.6380   12.8860   72.3650 C   0  0  0  0  0  0  0  0  0  0  0  0
  -13.0740   14.0370   71.6060 C   0  0  0  0  0  0  0  0  0  0  0  0
  -12.8170   15.2700   72.0950 C   0  0  0  0  0  0  0  0  0  0  0  0
  -12.2100   16.2260   71.2960 O   0  0  0  0  0  0  0  0  0  0  0  0
  -15.0340   13.1230   72.3920 O   0  0  0  0  0  0  0  0  0  0  0  0
   -9.8980   17.8420   67.3910 C   0  0  0  0  0  0  0  0  0  0  0  0
  -10.4830   18.7160   66.4640 C   0  0  0  0  0  0  0  0  0  0  0  0
   -9.7900   19.7150   65.9060 N   0  0  0  0  0  0  0  0  0  0  0  0
  -10.4190   20.5500   65.0550 F   0  0  0  0  0  0  0  0  0  0  0  0
   -8.5060   19.8990   66.1290 N   0  0  0  0  0  0  0  0  0  0  0  0
   -7.8540   19.0850   66.9600 C   0  0  0  0  0  0  0  0  0  0  0  0
   -8.5140   18.0480   67.6540 C   0  0  0  0  0  0  0  0  0  0  0  0
   -6.4720   19.2540   67.1280 C   0  0  0  0  0  0  0  0  0  0  0  0
   -7.7280   17.2780   68.5460 C   0  0  0  0  0  0  0  0  0  0  0  0
   -6.3400   17.4420   68.6470 C   0  0  0  0  0  0  0  0  0  0  0  0
   -5.6980   18.4300   67.9460 C   0  0  0  0  0  0  0  0  0  0  0  0
   -5.5630   16.5010   69.4400 C   0  0  0  0  0  0  0  0  0  0  0  0
   -4.3450   18.5970   67.9490 O   0  0  0  0  0  0  0  0  0  0  0  0
   -3.5550   17.9470   68.9830 C   0  0  0  0  0  0  0  0  0  0  0  0
   -4.1800   16.9250   69.8540 C   0  0  0  0  0  0  0  0  0  0  0  0
   -2.2240   17.6710   68.6220 O   0  0  0  0  0  0  0  0  0  0  0  0
   -2.4300   18.7330   69.6040 C   0  0  0  0  0  0  0  0  0  0  0  0
   -3.6770   16.4970   70.8790 O   0  0  0  0  0  0  0  0  0  0  0  0
   -2.5720   20.1250   69.1050 O   0  0  0  0  0  0  0  0  0  0  0  0
   -1.3740   19.6860   69.4100 C   0  0  0  0  0  0  0  0  0  0  0  0
   -0.4990   20.1270   70.1210 O   0  0  0  0  0  0  0  0  0  0  0  0
   -6.0600   15.4260   69.7490 O   0  0  0  0  0  0  0  0  0  0  0  0
   -5.8600   20.2270   66.4360 F   0  0  0  0  0  0  0  0  0  0  0  0
  -10.5600   15.3470   66.0490 O   0  0  0  0  0  0  0  0  0  0  0  0
  -10.2880   14.0070   65.6010 C   0  0  0  0  0  0  0  0  0  0  0  0
  -10.2080   13.1140   66.7010 O   0  0  0  0  0  0  0  0  0  0  0  0
  -10.0240   11.7860   66.3410 C   0  0  0  0  0  0  0  0  0  0  0  0
   -9.4630   10.9280   67.1990 C   0  0  0  0  0  0  0  0  0  0  0  0
  -10.4800   11.2610   65.0170 C   0  0  0  0  0  0  0  0  0  0  0  0
   -9.0360   11.3070   68.4470 O   0  0  0  0  0  0  0  0  0  0  0  0
  -11.4120   12.2050   64.2760 C   0  0  0  0  0  0  0  0  0  0  0  0
  -10.1110   10.2040   64.5380 O   0  0  0  0  0  0  0  0  0  0  0  0
  -11.4820   13.6360   64.7440 C   0  0  0  0  0  0  0  0  0  0  0  0
  -12.0840   11.8370   63.3300 O   0  0  0  0  0  0  0  0  0  0  0  0
  -12.4240   14.3770   64.4930 O   0  0  0  0  0  0  0  0  0  0  0  0
  -13.1030   15.6890   73.4760 C   0  0  0  0  0  0  0  0  0  0  0  0
  -12.1660   15.2800   74.5090 N   0  0  0  0  0  0  0  0  0  0  0  0
  -12.3110   16.6640   74.1830 N   0  0  0  0  0  0  0  0  0  0  0  0
  1 40  1  0  0  0  0
  1  2  2  0  0  0  0
  1  6  1  0  0  0  0
  2  3  1  0  0  0  0
  2 17  1  0  0  0  0
  3  4  1  0  0  0  0
  4  5  2  0  0  0  0
  4 15  1  0  0  0  0
  5  6  1  0  0  0  0
  5  7  1  0  0  0  0
  7  8  1  0  0  0  0
  7 13  1  0  0  0  0
  8  9  1  0  0  0  0
  9 10  2  0  0  0  0
  9 11  1  0  0  0  0
 11 12  1  0  0  0  0
 12 13  1  0  0  0  0
 12 16  1  0  0  0  0
 13 14  2  0  0  0  0
 14 15  1  0  0  0  0
 14 52  1  0  0  0  0
 17 18  2  0  0  0  0
 17 23  1  0  0  0  0
 18 19  1  0  0  0  0
 19 20  1  0  0  0  0
 19 21  2  0  0  0  0
 21 22  1  0  0  0  0
 22 23  2  0  0  0  0
 22 24  1  0  0  0  0
 23 25  1  0  0  0  0
 24 27  2  0  0  0  0
 24 39  1  0  0  0  0
 25 26  2  0  0  0  0
 26 27  1  0  0  0  0
 26 28  1  0  0  0  0
 27 29  1  0  0  0  0
 28 31  1  0  0  0  0
 28 38  2  0  0  0  0
 29 30  1  0  0  0  0
 30 31  1  0  0  0  0
 30 32  1  0  0  0  0
 30 33  1  0  0  0  0
 31 34  2  0  0  0  0
 32 33  1  0  0  0  0
 33 35  1  0  0  0  0
 33 36  1  0  0  0  0
 35 36  1  0  0  0  0
 36 37  2  0  0  0  0
 40 41  1  0  0  0  0
 41 42  1  0  0  0  0
 41 49  1  0  0  0  0
 42 43  1  0  0  0  0
 43 44  2  0  0  0  0
 43 45  1  0  0  0  0
 44 46  1  0  0  0  0
 45 47  1  0  0  0  0
 45 48  2  0  0  0  0
 47 49  1  0  0  0  0
 47 50  2  0  0  0  0
 49 51  2  0  0  0  0
 52 53  1  0  0  0  0
 52 54  1  0  0  0  0
 53 54  1  0  0  0  0
M  CHG  2  15   1  19   1
M  END