
 OpenBabel11272001313D

 53 61  0  0  1  0  0  0  0  0999 V2000
  -10.5840   15.5900   67.3970 C   0  0  0  0  0  0  0  0  0  0  0  0
  -10.4770   16.7570   68.0690 C   0  0  0  0  0  0  0  0  0  0  0  0
  -10.9310   16.9360   69.3800 O   0  0  0  0  0  0  0  0  0  0  0  0
  -11.4910   15.8610   70.0610 C   0  0  0  0  0  0  0  0  0  0  0  0
  -11.5690   14.6480   69.4980 C   0  0  0  0  0  0  0  0  0  0  0  0
  -11.1380   14.3740   68.1040 C   0  0  0  0  0  0  0  0  0  0  0  0
  -12.1480   13.5320   70.2910 C   0  0  0  0  0  0  0  0  0  0  0  0
  -12.1700   12.3260   69.8120 N   0  0  0  0  0  0  0  0  0  0  0  0
  -12.7200   11.3630   70.6050 C   0  0  0  0  0  0  0  0  0  0  0  0
  -12.6800   10.1810   70.1130 N   0  0  0  0  0  0  0  0  0  0  0  0
  -13.2900   11.5160   71.8360 N   0  0  0  0  0  0  0  0  0  0  0  0
  -13.2870   12.7070   72.3310 C   0  0  0  0  0  0  0  0  0  0  0  0
  -12.6940   13.8570   71.6330 C   0  0  0  0  0  0  0  0  0  0  0  0
  -12.6050   15.1210   72.0990 C   0  0  0  0  0  0  0  0  0  0  0  0
  -11.9700   16.0880   71.3280 N   0  0  0  0  0  0  0  0  0  0  0  0
   -9.8510   17.9710   67.5040 C   0  0  0  0  0  0  0  0  0  0  0  0
  -10.6300   18.6220   66.6030 N   0  0  0  0  0  0  0  0  0  0  0  0
  -10.0960   19.6910   65.9850 C   0  0  0  0  0  0  0  0  0  0  0  0
  -10.8770   20.3690   65.1330 F   0  0  0  0  0  0  0  0  0  0  0  0
   -8.7990   20.1220   66.1660 C   0  0  0  0  0  0  0  0  0  0  0  0
   -7.9900   19.4460   67.0840 C   0  0  0  0  0  0  0  0  0  0  0  0
   -8.5260   18.3600   67.8110 C   0  0  0  0  0  0  0  0  0  0  0  0
   -6.6540   19.8310   67.2930 C   0  0  0  0  0  0  0  0  0  0  0  0
   -7.7020   17.7410   68.7800 C   0  0  0  0  0  0  0  0  0  0  0  0
   -6.3800   18.1680   68.9880 C   0  0  0  0  0  0  0  0  0  0  0  0
   -5.5490   17.4950   69.9920 C   0  0  0  0  0  0  0  0  0  0  0  0
   -5.8410   19.2020   68.2350 C   0  0  0  0  0  0  0  0  0  0  0  0
   -5.9990   16.6440   70.7410 O   0  0  0  0  0  0  0  0  0  0  0  0
   -4.0940   17.8910   70.0300 C   0  0  0  0  0  0  0  0  0  0  0  0
   -3.2450   17.1310   70.4750 O   0  0  0  0  0  0  0  0  0  0  0  0
   -3.8130   19.2730   69.4920 C   0  0  0  0  0  0  0  0  0  0  0  0
   -4.5530   19.6480   68.3310 O   0  0  0  0  0  0  0  0  0  0  0  0
   -6.1400   20.8370   66.5640 F   0  0  0  0  0  0  0  0  0  0  0  0
   -3.9830   20.3050   70.5570 C   0  0  0  0  0  0  0  0  0  0  0  0
   -4.9270   21.3670   70.2790 O   0  0  0  0  0  0  0  0  0  0  0  0
   -3.9820   19.7990   71.8920 O   0  0  0  0  0  0  0  0  0  0  0  0
   -2.9590   20.6160   71.5570 C   0  0  0  0  0  0  0  0  0  0  0  0
   -2.6330   21.6720   72.0360 O   0  0  0  0  0  0  0  0  0  0  0  0
  -10.1840   15.4920   66.0650 O   0  0  0  0  0  0  0  0  0  0  0  0
  -10.1190   14.1900   65.4740 C   0  0  0  0  0  0  0  0  0  0  0  0
  -10.1250   13.1540   66.4600 O   0  0  0  0  0  0  0  0  0  0  0  0
  -10.0990   11.8650   65.9620 C   0  0  0  0  0  0  0  0  0  0  0  0
   -9.8640   10.8240   66.7640 C   0  0  0  0  0  0  0  0  0  0  0  0
  -10.4250   11.5700   64.5350 C   0  0  0  0  0  0  0  0  0  0  0  0
   -9.6080   10.9830   68.0750 F   0  0  0  0  0  0  0  0  0  0  0  0
  -11.1840   12.6360   63.7790 C   0  0  0  0  0  0  0  0  0  0  0  0
  -10.0890   10.5060   64.0150 O   0  0  0  0  0  0  0  0  0  0  0  0
  -11.3190   13.9200   64.5660 C   0  0  0  0  0  0  0  0  0  0  0  0
  -12.3920   12.1630   63.3530 F   0  0  0  0  0  0  0  0  0  0  0  0
  -12.2690   14.6890   64.4320 O   0  0  0  0  0  0  0  0  0  0  0  0
  -13.1390   15.5770   73.4040 C   0  0  0  0  0  0  0  0  0  0  0  0
  -12.4440   15.3150   74.6370 O   0  0  0  0  0  0  0  0  0  0  0  0
  -12.5360   16.6610   74.1300 O   0  0  0  0  0  0  0  0  0  0  0  0
  1 39  1  0  0  0  0
  1  2  2  0  0  0  0
  1  6  1  0  0  0  0
  2  3  1  0  0  0  0
  2 16  1  0  0  0  0
  3  4  1  0  0  0  0
  4  5  2  0  0  0  0
  4 15  1  0  0  0  0
  5  6  1  0  0  0  0
  5  7  1  0  0  0  0
  7  8  2  0  0  0  0
  7 13  1  0  0  0  0
  8  9  1  0  0  0  0
  9 10  2  0  0  0  0
  9 11  1  0  0  0  0
 11 12  2  0  0  0  0
 12 13  1  0  0  0  0
 13 14  2  0  0  0  0
 14 15  1  0  0  0  0
 14 51  1  0  0  0  0
 16 17  2  0  0  0  0
 16 22  1  0  0  0  0
 17 18  1  0  0  0  0
 18 19  1  0  0  0  0
 18 20  2  0  0  0  0
 20 21  1  0  0  0  0
 21 22  2  0  0  0  0
 21 23  1  0  0  0  0
 22 24  1  0  0  0  0
 23 27  2  0  0  0  0
 23 33  1  0  0  0  0
 24 25  2  0  0  0  0
 25 26  1  0  0  0  0
 25 27  1  0  0  0  0
 26 28  2  0  0  0  0
 26 29  1  0  0  0  0
 27 32  1  0  0  0  0
 29 30  2  0  0  0  0
 29 31  1  0  0  0  0
 31 32  1  0  0  0  0
 31 34  1  0  0  0  0
 34 35  1  0  0  0  0
 34 36  1  0  0  0  0
 34 37  1  0  0  0  0
 36 37  1  0  0  0  0
 37 38  2  0  0  0  0
 39 40  1  0  0  0  0
 40 41  1  0  0  0  0
 40 48  1  0  0  0  0
 41 42  1  0  0  0  0
 42 43  2  0  0  0  0
 42 44  1  0  0  0  0
 43 45  1  0  0  0  0
 44 46  1  0  0  0  0
 44 47  2  0  0  0  0
 46 48  1  0  0  0  0
 46 49  1  0  0  0  0
 48 50  2  0  0  0  0
 51 52  1  0  0  0  0
 51 53  1  0  0  0  0
 52 53  1  0  0  0  0
M  END
