
 OpenBabel09212019553D

 49 56  0  0  1  0  0  0  0  0999 V2000
   -9.8400   15.5110   68.0030 C   0  0  0  0  0  0  0  0  0  0  0  0
  -10.1420   16.7360   68.4810 C   0  0  0  0  0  0  0  0  0  0  0  0
  -10.9200   16.9610   69.6140 O   0  0  0  0  0  0  0  0  0  0  0  0
  -11.5360   15.8910   70.2320 C   0  0  0  0  0  0  0  0  0  0  0  0
  -11.3060   14.5870   69.8320 C   0  0  0  0  0  0  0  0  0  0  0  0
  -10.3740   14.3000   68.7060 C   0  0  0  0  0  0  0  0  0  0  0  0
  -11.9800   13.5680   70.5130 C   0  0  0  0  0  0  0  0  0  0  0  0
  -11.7680   12.2240   70.1750 N   0  0  0  0  0  0  0  0  0  0  0  0
  -12.4550   11.1770   70.7000 C   0  0  0  0  0  0  0  0  0  0  0  0
  -12.2430   10.0280   70.3230 O   0  0  0  0  0  0  0  0  0  0  0  0
  -13.3950   11.4650   71.6300 N   0  0  0  0  0  0  0  0  0  0  0  0
  -13.4960   12.7400   72.2990 C   0  0  0  0  0  0  0  0  0  0  0  0
  -12.8680   13.8630   71.5420 C   0  0  0  0  0  0  0  0  0  0  0  0
  -13.0190   15.2040   71.8610 C   0  0  0  0  0  0  0  0  0  0  0  0
  -12.3740   16.2110   71.2400 N   0  0  0  0  0  0  0  0  0  0  0  0
  -13.8240   15.6210   72.8800 O   0  0  0  0  0  0  0  0  0  0  0  0
   -9.6670   17.9820   67.8450 C   0  0  0  0  0  0  0  0  0  0  0  0
  -10.6190   18.6350   67.1260 N   0  0  0  0  0  0  0  0  0  0  0  0
  -10.2590   19.7890   66.5290 C   0  0  0  0  0  0  0  0  0  0  0  0
   -8.9970   20.3460   66.6230 C   0  0  0  0  0  0  0  0  0  0  0  0
   -8.0210   19.6830   67.3700 C   0  0  0  0  0  0  0  0  0  0  0  0
   -8.3400   18.4500   67.9910 C   0  0  0  0  0  0  0  0  0  0  0  0
   -6.7440   20.2480   67.5300 C   0  0  0  0  0  0  0  0  0  0  0  0
   -7.3170   17.7820   68.7050 C   0  0  0  0  0  0  0  0  0  0  0  0
   -6.0470   18.3520   68.8330 C   0  0  0  0  0  0  0  0  0  0  0  0
   -5.7770   19.6110   68.3040 C   0  0  0  0  0  0  0  0  0  0  0  0
   -4.9760   17.6330   69.5430 C   0  0  0  0  0  0  0  0  0  0  0  0
   -4.6100   20.3000   68.5100 O   0  0  0  0  0  0  0  0  0  0  0  0
   -3.8540   19.8830   69.6680 C   0  0  0  0  0  0  0  0  0  0  0  0
   -3.6670   18.3840   69.6540 C   0  0  0  0  0  0  0  0  0  0  0  0
   -2.5900   17.8070   69.6700 O   0  0  0  0  0  0  0  0  0  0  0  0
   -5.1240   16.5180   70.0130 O   0  0  0  0  0  0  0  0  0  0  0  0
   -4.4610   20.4340   70.9480 C   0  0  0  0  0  0  0  0  0  0  0  0
   -5.7890   20.9840   70.8310 O   0  0  0  0  0  0  0  0  0  0  0  0
   -4.2240   19.8020   72.1870 N   0  0  0  0  0  0  0  0  0  0  0  0
   -3.6340   21.0140   72.0250 C   0  0  0  0  0  0  0  0  0  0  0  0
   -2.5180   21.4420   71.9080 O   0  0  0  0  0  0  0  0  0  0  0  0
   -9.1260   15.3310   66.8190 O   0  0  0  0  0  0  0  0  0  0  0  0
   -9.6380   14.3760   65.8810 C   0  0  0  0  0  0  0  0  0  0  0  0
  -10.1090   13.1880   66.5250 O   0  0  0  0  0  0  0  0  0  0  0  0
  -10.2700   12.0840   65.6360 C   0  0  0  0  0  0  0  0  0  0  0  0
  -11.0390   12.4160   64.3760 C   0  0  0  0  0  0  0  0  0  0  0  0
  -11.5520   13.8390   64.3160 C   0  0  0  0  0  0  0  0  0  0  0  0
  -11.1550   11.6510   63.4290 O   0  0  0  0  0  0  0  0  0  0  0  0
  -10.8390   14.9200   65.1090 C   0  0  0  0  0  0  0  0  0  0  0  0
  -12.4910   14.1140   63.5850 O   0  0  0  0  0  0  0  0  0  0  0  0
  -11.2030   16.0840   65.0570 O   0  0  0  0  0  0  0  0  0  0  0  0
  -10.9880   10.9490   66.3680 C   0  0  0  0  0  0  0  0  0  0  0  0
  -12.0920   11.4800   67.0990 O   0  0  0  0  0  0  0  0  0  0  0  0
  1 38  1  0  0  0  0
  1  2  2  0  0  0  0
  1  6  1  0  0  0  0
  2  3  1  0  0  0  0
  2 17  1  0  0  0  0
  3  4  1  0  0  0  0
  4  5  2  0  0  0  0
  4 15  1  0  0  0  0
  5  6  1  0  0  0  0
  5  7  1  0  0  0  0
  7  8  1  0  0  0  0
  7 13  2  0  0  0  0
  8  9  1  0  0  0  0
  9 10  2  0  0  0  0
  9 11  1  0  0  0  0
 11 12  1  0  0  0  0
 12 13  1  0  0  0  0
 13 14  1  0  0  0  0
 14 15  2  0  0  0  0
 14 16  1  0  0  0  0
 17 18  2  0  0  0  0
 17 22  1  0  0  0  0
 18 19  1  0  0  0  0
 19 20  2  0  0  0  0
 20 21  1  0  0  0  0
 21 22  2  0  0  0  0
 21 23  1  0  0  0  0
 22 24  1  0  0  0  0
 23 26  2  0  0  0  0
 24 25  2  0  0  0  0
 25 26  1  0  0  0  0
 25 27  1  0  0  0  0
 26 28  1  0  0  0  0
 27 30  1  0  0  0  0
 27 32  2  0  0  0  0
 28 29  1  0  0  0  0
 29 30  1  0  0  0  0
 29 33  1  0  0  0  0
 30 31  2  0  0  0  0
 33 34  1  0  0  0  0
 33 35  1  0  0  0  0
 33 36  1  0  0  0  0
 35 36  1  0  0  0  0
 36 37  2  0  0  0  0
 38 39  1  0  0  0  0
 39 40  1  0  0  0  0
 39 45  1  0  0  0  0
 40 41  1  0  0  0  0
 41 42  1  0  0  0  0
 41 48  1  0  0  0  0
 42 43  1  0  0  0  0
 42 44  2  0  0  0  0
 43 45  1  0  0  0  0
 43 46  2  0  0  0  0
 45 47  2  0  0  0  0
 48 49  1  0  0  0  0
M  END
