
 OpenBabel11222001383D

 54 62  0  0  1  0  0  0  0  0999 V2000
  -11.1190   15.8440   67.2820 C   0  0  0  0  0  0  0  0  0  0  0  0
  -10.5570   16.8460   67.9910 C   0  0  0  0  0  0  0  0  0  0  0  0
  -10.6630   16.9630   69.3720 O   0  0  0  0  0  0  0  0  0  0  0  0
  -11.3770   16.0060   70.0740 C   0  0  0  0  0  0  0  0  0  0  0  0
  -11.9350   14.9410   69.4720 C   0  0  0  0  0  0  0  0  0  0  0  0
  -11.8730   14.7500   67.9940 C   0  0  0  0  0  0  0  0  0  0  0  0
  -12.7090   13.9220   70.2680 C   0  0  0  0  0  0  0  0  0  0  0  0
  -12.0870   12.6480   70.0650 O   0  0  0  0  0  0  0  0  0  0  0  0
  -12.3580   11.6290   70.8990 C   0  0  0  0  0  0  0  0  0  0  0  0
  -11.9300   10.4550   70.6140 N   0  0  0  0  0  0  0  0  0  0  0  0
  -13.0610   11.8440   72.0230 O   0  0  0  0  0  0  0  0  0  0  0  0
  -13.4940   13.1360   72.4330 C   0  0  0  0  0  0  0  0  0  0  0  0
  -12.7640   14.2090   71.7280 C   0  0  0  0  0  0  0  0  0  0  0  0
  -12.1940   15.3120   72.2640 C   0  0  0  0  0  0  0  0  0  0  0  0
  -11.5100   16.1800   71.4290 N   0  0  0  0  0  0  0  0  0  0  0  0
  -14.8730   13.2730   72.1400 O   0  0  0  0  0  0  0  0  0  0  0  0
   -9.7150   17.8810   67.3670 C   0  0  0  0  0  0  0  0  0  0  0  0
  -10.3340   18.7720   66.4850 C   0  0  0  0  0  0  0  0  0  0  0  0
   -9.5730   19.7740   65.9360 C   0  0  0  0  0  0  0  0  0  0  0  0
  -10.1500   20.6260   65.0780 F   0  0  0  0  0  0  0  0  0  0  0  0
   -8.2700   19.9530   66.2070 N   0  0  0  0  0  0  0  0  0  0  0  0
   -7.6830   19.0940   67.0700 C   0  0  0  0  0  0  0  0  0  0  0  0
   -8.3510   18.0000   67.6670 C   0  0  0  0  0  0  0  0  0  0  0  0
   -6.3290   19.2800   67.3930 C   0  0  0  0  0  0  0  0  0  0  0  0
   -7.7180   17.1230   68.4830 N   0  0  0  0  0  0  0  0  0  0  0  0
   -6.4170   17.3490   68.7820 C   0  0  0  0  0  0  0  0  0  0  0  0
   -5.7360   16.3580   69.6400 C   0  0  0  0  0  0  0  0  0  0  0  0
   -5.7010   18.4360   68.3170 C   0  0  0  0  0  0  0  0  0  0  0  0
   -6.2440   15.3170   70.0270 O   0  0  0  0  0  0  0  0  0  0  0  0
   -4.3070   16.6900   70.0050 C   0  0  0  0  0  0  0  0  0  0  0  0
   -3.5160   15.8220   70.3500 O   0  0  0  0  0  0  0  0  0  0  0  0
   -3.9650   18.1550   69.9070 C   0  0  0  0  0  0  0  0  0  0  0  0
   -4.4160   18.7450   68.6820 O   0  0  0  0  0  0  0  0  0  0  0  0
   -5.6590   20.4590   66.9580 N   0  0  0  0  0  0  0  0  0  0  0  0
   -4.4590   18.9180   71.0970 C   0  0  0  0  0  0  0  0  0  0  0  0
   -5.2760   18.1890   72.0450 O   0  0  0  0  0  0  0  0  0  0  0  0
   -3.4990   19.8070   71.6620 O   0  0  0  0  0  0  0  0  0  0  0  0
   -4.6020   20.3690   71.1360 C   0  0  0  0  0  0  0  0  0  0  0  0
   -5.4520   21.0500   71.6820 O   0  0  0  0  0  0  0  0  0  0  0  0
  -10.9480   15.7530   65.9040 O   0  0  0  0  0  0  0  0  0  0  0  0
  -10.5990   14.4560   65.4020 C   0  0  0  0  0  0  0  0  0  0  0  0
  -10.3350   13.5400   66.4610 O   0  0  0  0  0  0  0  0  0  0  0  0
   -9.8710   12.3110   66.0330 C   0  0  0  0  0  0  0  0  0  0  0  0
   -8.9050   11.6690   66.7000 C   0  0  0  0  0  0  0  0  0  0  0  0
  -10.4570   11.6570   64.8330 C   0  0  0  0  0  0  0  0  0  0  0  0
   -8.2780   12.2070   67.7920 O   0  0  0  0  0  0  0  0  0  0  0  0
  -11.5180   12.4840   64.1340 C   0  0  0  0  0  0  0  0  0  0  0  0
  -10.1030   10.5720   64.4050 O   0  0  0  0  0  0  0  0  0  0  0  0
  -11.7280   13.9250   64.5380 C   0  0  0  0  0  0  0  0  0  0  0  0
  -12.1720   12.0000   63.2240 O   0  0  0  0  0  0  0  0  0  0  0  0
  -12.6920   14.5570   64.1320 O   0  0  0  0  0  0  0  0  0  0  0  0
  -12.2590   15.6780   73.6970 C   0  0  0  0  0  0  0  0  0  0  0  0
  -12.1260   17.0360   74.1360 O   0  0  0  0  0  0  0  0  0  0  0  0
  -13.3880   16.3580   74.2650 O   0  0  0  0  0  0  0  0  0  0  0  0
  1 40  1  0  0  0  0
  1  2  2  0  0  0  0
  1  6  1  0  0  0  0
  2  3  1  0  0  0  0
  2 17  1  0  0  0  0
  3  4  1  0  0  0  0
  4  5  2  0  0  0  0
  4 15  1  0  0  0  0
  5  6  1  0  0  0  0
  5  7  1  0  0  0  0
  7  8  1  0  0  0  0
  7 13  1  0  0  0  0
  8  9  1  0  0  0  0
  9 10  2  0  0  0  0
  9 11  1  0  0  0  0
 11 12  1  0  0  0  0
 12 13  1  0  0  0  0
 12 16  1  0  0  0  0
 13 14  2  0  0  0  0
 14 15  1  0  0  0  0
 14 52  1  0  0  0  0
 17 18  2  0  0  0  0
 17 23  1  0  0  0  0
 18 19  1  0  0  0  0
 19 20  1  0  0  0  0
 19 21  2  0  0  0  0
 21 22  1  0  0  0  0
 22 23  2  0  0  0  0
 22 24  1  0  0  0  0
 23 25  1  0  0  0  0
 24 28  2  0  0  0  0
 24 34  1  0  0  0  0
 25 26  2  0  0  0  0
 26 27  1  0  0  0  0
 26 28  1  0  0  0  0
 27 29  2  0  0  0  0
 27 30  1  0  0  0  0
 28 33  1  0  0  0  0
 30 31  2  0  0  0  0
 30 32  1  0  0  0  0
 32 33  1  0  0  0  0
 32 35  1  0  0  0  0
 35 36  1  0  0  0  0
 35 37  1  0  0  0  0
 35 38  1  0  0  0  0
 37 38  1  0  0  0  0
 38 39  2  0  0  0  0
 40 41  1  0  0  0  0
 41 42  1  0  0  0  0
 41 49  1  0  0  0  0
 42 43  1  0  0  0  0
 43 44  2  0  0  0  0
 43 45  1  0  0  0  0
 44 46  1  0  0  0  0
 45 47  1  0  0  0  0
 45 48  2  0  0  0  0
 47 49  1  0  0  0  0
 47 50  2  0  0  0  0
 49 51  2  0  0  0  0
 52 53  1  0  0  0  0
 52 54  1  0  0  0  0
 53 54  1  0  0  0  0
M  END
