
 OpenBabel11262000413D

 53 61  0  0  1  0  0  0  0  0999 V2000
  -11.0550   15.7660   67.2190 C   0  0  0  0  0  0  0  0  0  0  0  0
  -10.6200   16.8600   67.8780 C   0  0  0  0  0  0  0  0  0  0  0  0
  -10.8350   17.0580   69.2530 O   0  0  0  0  0  0  0  0  0  0  0  0
  -11.4960   16.0560   70.0080 C   0  0  0  0  0  0  0  0  0  0  0  0
  -11.9290   14.9260   69.4150 C   0  0  0  0  0  0  0  0  0  0  0  0
  -11.7880   14.6670   67.9450 C   0  0  0  0  0  0  0  0  0  0  0  0
  -12.6280   13.8280   70.1790 C   0  0  0  0  0  0  0  0  0  0  0  0
  -11.8540   12.6470   70.0390 O   0  0  0  0  0  0  0  0  0  0  0  0
  -12.4140   11.5570   70.6090 C   0  0  0  0  0  0  0  0  0  0  0  0
  -12.1080   10.3820   70.2190 N   0  0  0  0  0  0  0  0  0  0  0  0
  -13.3270   11.7730   71.5750 O   0  0  0  0  0  0  0  0  0  0  0  0
  -13.2460   12.9490   72.3950 C   0  0  0  0  0  0  0  0  0  0  0  0
  -12.7110   14.1230   71.6300 C   0  0  0  0  0  0  0  0  0  0  0  0
  -12.2730   15.2820   72.1670 C   0  0  0  0  0  0  0  0  0  0  0  0
  -11.6940   16.2610   71.3650 O   0  0  0  0  0  0  0  0  0  0  0  0
   -9.8810   17.9350   67.1460 C   0  0  0  0  0  0  0  0  0  0  0  0
  -10.5890   18.7900   66.2900 C   0  0  0  0  0  0  0  0  0  0  0  0
   -9.9640   19.8180   65.7050 N   0  0  0  0  0  0  0  0  0  0  0  0
  -10.6490   20.6160   64.8590 F   0  0  0  0  0  0  0  0  0  0  0  0
   -8.6940   20.0860   65.9300 N   0  0  0  0  0  0  0  0  0  0  0  0
   -7.9980   19.3110   66.7800 C   0  0  0  0  0  0  0  0  0  0  0  0
   -8.5520   18.1900   67.3870 N   0  0  0  0  0  0  0  0  0  0  0  0
   -6.6720   19.6470   67.0860 C   0  0  0  0  0  0  0  0  0  0  0  0
   -7.7780   17.4200   68.2050 C   0  0  0  0  0  0  0  0  0  0  0  0
   -6.4710   17.7780   68.5180 C   0  0  0  0  0  0  0  0  0  0  0  0
   -5.7310   16.9900   69.4930 C   0  0  0  0  0  0  0  0  0  0  0  0
   -5.9160   18.9220   67.9970 C   0  0  0  0  0  0  0  0  0  0  0  0
   -6.2180   15.9440   69.8800 O   0  0  0  0  0  0  0  0  0  0  0  0
   -4.4130   17.5550   69.9700 C   0  0  0  0  0  0  0  0  0  0  0  0
   -3.5940   16.8250   70.4980 O   0  0  0  0  0  0  0  0  0  0  0  0
   -4.2630   19.0450   69.7320 C   0  0  0  0  0  0  0  0  0  0  0  0
   -4.7170   19.4270   68.4060 O   0  0  0  0  0  0  0  0  0  0  0  0
   -6.1480   20.7500   66.5330 F   0  0  0  0  0  0  0  0  0  0  0  0
   -4.9000   19.8510   70.8450 C   0  0  0  0  0  0  0  0  0  0  0  0
   -5.9360   20.7620   70.4510 O   0  0  0  0  0  0  0  0  0  0  0  0
   -5.0930   19.1680   72.0860 O   0  0  0  0  0  0  0  0  0  0  0  0
   -4.2300   20.2000   72.1030 C   0  0  0  0  0  0  0  0  0  0  0  0
   -3.0470   20.2540   72.3800 O   0  0  0  0  0  0  0  0  0  0  0  0
  -10.7960   15.6150   65.8620 O   0  0  0  0  0  0  0  0  0  0  0  0
  -10.6080   14.2580   65.3760 C   0  0  0  0  0  0  0  0  0  0  0  0
  -10.6870   13.3530   66.4690 O   0  0  0  0  0  0  0  0  0  0  0  0
  -10.3290   12.0780   66.0630 C   0  0  0  0  0  0  0  0  0  0  0  0
   -9.5770   11.3000   66.8480 C   0  0  0  0  0  0  0  0  0  0  0  0
  -10.7710   11.5740   64.7190 C   0  0  0  0  0  0  0  0  0  0  0  0
   -9.0950   11.7220   68.0640 O   0  0  0  0  0  0  0  0  0  0  0  0
  -11.7800   12.4360   63.9840 C   0  0  0  0  0  0  0  0  0  0  0  0
  -10.3310   10.5240   64.2640 O   0  0  0  0  0  0  0  0  0  0  0  0
  -11.7180   13.9000   64.3910 C   0  0  0  0  0  0  0  0  0  0  0  0
  -13.0430   11.9530   64.1710 F   0  0  0  0  0  0  0  0  0  0  0  0
  -12.5010   14.7600   63.9810 O   0  0  0  0  0  0  0  0  0  0  0  0
  -12.3150   15.5760   73.6200 C   0  0  0  0  0  0  0  0  0  0  0  0
  -12.1640   16.9170   74.1000 O   0  0  0  0  0  0  0  0  0  0  0  0
  -13.4470   16.2660   74.1820 O   0  0  0  0  0  0  0  0  0  0  0  0
  1 39  1  0  0  0  0
  1  2  2  0  0  0  0
  1  6  1  0  0  0  0
  2  3  1  0  0  0  0
  2 16  1  0  0  0  0
  3  4  1  0  0  0  0
  4  5  2  0  0  0  0
  4 15  1  0  0  0  0
  5  6  1  0  0  0  0
  5  7  1  0  0  0  0
  7  8  1  0  0  0  0
  7 13  1  0  0  0  0
  8  9  1  0  0  0  0
  9 10  2  0  0  0  0
  9 11  1  0  0  0  0
 11 12  1  0  0  0  0
 12 13  1  0  0  0  0
 13 14  2  0  0  0  0
 14 15  1  0  0  0  0
 14 51  1  0  0  0  0
 16 17  2  0  0  0  0
 16 22  1  0  0  0  0
 17 18  1  0  0  0  0
 18 19  1  0  0  0  0
 18 20  2  0  0  0  0
 20 21  1  0  0  0  0
 21 22  2  0  0  0  0
 21 23  1  0  0  0  0
 22 24  1  0  0  0  0
 23 27  2  0  0  0  0
 23 33  1  0  0  0  0
 24 25  2  0  0  0  0
 25 26  1  0  0  0  0
 25 27  1  0  0  0  0
 26 28  2  0  0  0  0
 26 29  1  0  0  0  0
 27 32  1  0  0  0  0
 29 30  2  0  0  0  0
 29 31  1  0  0  0  0
 31 32  1  0  0  0  0
 31 34  1  0  0  0  0
 34 35  1  0  0  0  0
 34 36  1  0  0  0  0
 34 37  1  0  0  0  0
 36 37  1  0  0  0  0
 37 38  2  0  0  0  0
 39 40  1  0  0  0  0
 40 41  1  0  0  0  0
 40 48  1  0  0  0  0
 41 42  1  0  0  0  0
 42 43  2  0  0  0  0
 42 44  1  0  0  0  0
 43 45  1  0  0  0  0
 44 46  1  0  0  0  0
 44 47  2  0  0  0  0
 46 48  1  0  0  0  0
 46 49  1  0  0  0  0
 48 50  2  0  0  0  0
 51 52  1  0  0  0  0
 51 53  1  0  0  0  0
 52 53  1  0  0  0  0
M  CHG  3  15   1  18   1  22   1
M  END