
 OpenBabel11242002033D

 54 62  0  0  1  0  0  0  0  0999 V2000
   -9.5480   14.7520   67.2530 C   0  0  0  0  0  0  0  0  0  0  0  0
   -9.8290   15.8070   68.0570 C   0  0  0  0  0  0  0  0  0  0  0  0
  -10.3080   15.5760   69.3660 O   0  0  0  0  0  0  0  0  0  0  0  0
  -10.9210   14.3450   69.6430 C   0  0  0  0  0  0  0  0  0  0  0  0
  -10.5530   13.2460   68.9540 C   0  0  0  0  0  0  0  0  0  0  0  0
   -9.4880   13.3800   67.8980 C   0  0  0  0  0  0  0  0  0  0  0  0
  -11.2140   11.9050   69.1500 C   0  0  0  0  0  0  0  0  0  0  0  0
  -10.2090   10.9550   69.4170 O   0  0  0  0  0  0  0  0  0  0  0  0
  -10.6380    9.7910   69.9490 C   0  0  0  0  0  0  0  0  0  0  0  0
  -11.7910    9.5840   70.4680 O   0  0  0  0  0  0  0  0  0  0  0  0
  -12.7070   10.5590   70.4800 C   0  0  0  0  0  0  0  0  0  0  0  0
  -12.1780   11.9340   70.2710 C   0  0  0  0  0  0  0  0  0  0  0  0
  -12.5090   13.0740   70.9320 C   0  0  0  0  0  0  0  0  0  0  0  0
  -11.9000   14.2920   70.6170 O   0  0  0  0  0  0  0  0  0  0  0  0
  -13.5800   10.3030   69.4120 O   0  0  0  0  0  0  0  0  0  0  0  0
   -9.7640    8.7860   69.9930 F   0  0  0  0  0  0  0  0  0  0  0  0
   -9.5940   17.2530   67.7060 C   0  0  0  0  0  0  0  0  0  0  0  0
  -10.4290   17.8560   66.7580 C   0  0  0  0  0  0  0  0  0  0  0  0
  -10.1750   19.0790   66.2790 N   0  0  0  0  0  0  0  0  0  0  0  0
  -11.0040   19.6040   65.3560 F   0  0  0  0  0  0  0  0  0  0  0  0
   -9.1140   19.7740   66.6350 N   0  0  0  0  0  0  0  0  0  0  0  0
   -8.2590   19.2730   67.5270 C   0  0  0  0  0  0  0  0  0  0  0  0
   -8.4700   18.0150   68.1290 C   0  0  0  0  0  0  0  0  0  0  0  0
   -7.1040   19.9990   67.8500 C   0  0  0  0  0  0  0  0  0  0  0  0
   -7.5200   17.5900   69.0820 C   0  0  0  0  0  0  0  0  0  0  0  0
   -6.3370   18.3020   69.3210 C   0  0  0  0  0  0  0  0  0  0  0  0
   -5.2650   17.6580   70.0830 C   0  0  0  0  0  0  0  0  0  0  0  0
   -6.1260   19.5300   68.7330 C   0  0  0  0  0  0  0  0  0  0  0  0
   -5.4030   16.4910   70.4320 O   0  0  0  0  0  0  0  0  0  0  0  0
   -3.9840   18.4530   70.2480 C   0  0  0  0  0  0  0  0  0  0  0  0
   -2.9490   17.8780   70.5450 O   0  0  0  0  0  0  0  0  0  0  0  0
   -4.1380   19.9460   70.0130 C   0  0  0  0  0  0  0  0  0  0  0  0
   -5.0120   20.2920   68.9230 O   0  0  0  0  0  0  0  0  0  0  0  0
   -6.9070   21.1800   67.2440 F   0  0  0  0  0  0  0  0  0  0  0  0
   -4.5770   20.6310   71.2660 C   0  0  0  0  0  0  0  0  0  0  0  0
   -6.0030   20.5980   71.5490 O   0  0  0  0  0  0  0  0  0  0  0  0
   -3.7220   20.4480   72.3840 O   0  0  0  0  0  0  0  0  0  0  0  0
   -3.8320   21.7100   71.9210 C   0  0  0  0  0  0  0  0  0  0  0  0
   -4.2860   22.6970   72.4620 O   0  0  0  0  0  0  0  0  0  0  0  0
   -9.3110   14.9080   65.8940 O   0  0  0  0  0  0  0  0  0  0  0  0
  -10.1320   14.2010   64.9230 C   0  0  0  0  0  0  0  0  0  0  0  0
  -10.0840   12.8070   65.2120 O   0  0  0  0  0  0  0  0  0  0  0  0
  -10.8320   12.0090   64.3590 C   0  0  0  0  0  0  0  0  0  0  0  0
  -10.3760   10.8270   63.9290 C   0  0  0  0  0  0  0  0  0  0  0  0
  -12.2210   12.4040   64.0000 C   0  0  0  0  0  0  0  0  0  0  0  0
   -9.1260   10.3640   64.2480 O   0  0  0  0  0  0  0  0  0  0  0  0
  -12.6040   13.7160   64.6340 C   0  0  0  0  0  0  0  0  0  0  0  0
  -13.0050   11.7710   63.3260 O   0  0  0  0  0  0  0  0  0  0  0  0
  -11.5510   14.7790   64.7910 C   0  0  0  0  0  0  0  0  0  0  0  0
  -13.6530   13.8460   65.2480 O   0  0  0  0  0  0  0  0  0  0  0  0
  -11.8700   15.9420   65.0110 O   0  0  0  0  0  0  0  0  0  0  0  0
  -13.4920   13.1210   72.0410 C   0  0  0  0  0  0  0  0  0  0  0  0
  -13.3580   14.1010   73.0750 O   0  0  0  0  0  0  0  0  0  0  0  0
  -14.4400   14.1930   72.1270 O   0  0  0  0  0  0  0  0  0  0  0  0
  1 40  1  0  0  0  0
  1  2  2  0  0  0  0
  1  6  1  0  0  0  0
  2  3  1  0  0  0  0
  2 17  1  0  0  0  0
  3  4  1  0  0  0  0
  4  5  2  0  0  0  0
  4 14  1  0  0  0  0
  5  6  1  0  0  0  0
  5  7  1  0  0  0  0
  7  8  1  0  0  0  0
  7 12  1  0  0  0  0
  8  9  1  0  0  0  0
  9 10  2  0  0  0  0
  9 16  1  0  0  0  0
 10 11  1  0  0  0  0
 11 12  1  0  0  0  0
 11 15  1  0  0  0  0
 12 13  2  0  0  0  0
 13 14  1  0  0  0  0
 13 52  1  0  0  0  0
 17 18  2  0  0  0  0
 17 23  1  0  0  0  0
 18 19  1  0  0  0  0
 19 20  1  0  0  0  0
 19 21  2  0  0  0  0
 21 22  1  0  0  0  0
 22 23  2  0  0  0  0
 22 24  1  0  0  0  0
 23 25  1  0  0  0  0
 24 28  2  0  0  0  0
 24 34  1  0  0  0  0
 25 26  2  0  0  0  0
 26 27  1  0  0  0  0
 26 28  1  0  0  0  0
 27 29  2  0  0  0  0
 27 30  1  0  0  0  0
 28 33  1  0  0  0  0
 30 31  2  0  0  0  0
 30 32  1  0  0  0  0
 32 33  1  0  0  0  0
 32 35  1  0  0  0  0
 35 36  1  0  0  0  0
 35 37  1  0  0  0  0
 35 38  1  0  0  0  0
 37 38  1  0  0  0  0
 38 39  2  0  0  0  0
 40 41  1  0  0  0  0
 41 42  1  0  0  0  0
 41 49  1  0  0  0  0
 42 43  1  0  0  0  0
 43 44  2  0  0  0  0
 43 45  1  0  0  0  0
 44 46  1  0  0  0  0
 45 47  1  0  0  0  0
 45 48  2  0  0  0  0
 47 49  1  0  0  0  0
 47 50  2  0  0  0  0
 49 51  2  0  0  0  0
 52 53  1  0  0  0  0
 52 54  1  0  0  0  0
 53 54  1  0  0  0  0
M  CHG  3  10   1  14   1  19   1
M  END