
 OpenBabel11272020503D

 54 62  0  0  1  0  0  0  0  0999 V2000
  -10.8710   15.7590   67.0930 C   0  0  0  0  0  0  0  0  0  0  0  0
  -10.6620   16.8570   67.8540 C   0  0  0  0  0  0  0  0  0  0  0  0
  -11.0750   16.9580   69.1800 O   0  0  0  0  0  0  0  0  0  0  0  0
  -11.7000   15.8770   69.7810 C   0  0  0  0  0  0  0  0  0  0  0  0
  -11.8770   14.7090   69.1390 C   0  0  0  0  0  0  0  0  0  0  0  0
  -11.4940   14.5290   67.7080 C   0  0  0  0  0  0  0  0  0  0  0  0
  -12.5470   13.5480   69.8260 C   0  0  0  0  0  0  0  0  0  0  0  0
  -11.6530   12.4430   69.8110 O   0  0  0  0  0  0  0  0  0  0  0  0
  -12.0260   11.3600   70.5170 C   0  0  0  0  0  0  0  0  0  0  0  0
  -11.4070   10.2540   70.3210 N   0  0  0  0  0  0  0  0  0  0  0  0
  -13.0500   11.4400   71.3900 O   0  0  0  0  0  0  0  0  0  0  0  0
  -13.4780   12.6280   71.8670 C   0  0  0  0  0  0  0  0  0  0  0  0
  -14.3350   12.7100   72.7380 O   0  0  0  0  0  0  0  0  0  0  0  0
  -12.9130   13.8130   71.2330 C   0  0  0  0  0  0  0  0  0  0  0  0
  -12.7540   15.0190   71.8170 C   0  0  0  0  0  0  0  0  0  0  0  0
  -12.1560   16.0300   71.0680 N   0  0  0  0  0  0  0  0  0  0  0  0
   -9.9310   18.0490   67.3780 C   0  0  0  0  0  0  0  0  0  0  0  0
  -10.5560   18.8350   66.4090 C   0  0  0  0  0  0  0  0  0  0  0  0
   -9.8970   19.9520   65.9510 C   0  0  0  0  0  0  0  0  0  0  0  0
  -10.4770   20.6880   64.9920 F   0  0  0  0  0  0  0  0  0  0  0  0
   -8.6930   20.3500   66.3950 N   0  0  0  0  0  0  0  0  0  0  0  0
   -8.0680   19.6000   67.3190 C   0  0  0  0  0  0  0  0  0  0  0  0
   -8.6360   18.4080   67.8330 C   0  0  0  0  0  0  0  0  0  0  0  0
   -6.8100   19.9880   67.7900 C   0  0  0  0  0  0  0  0  0  0  0  0
   -7.8830   17.6270   68.7370 C   0  0  0  0  0  0  0  0  0  0  0  0
   -6.6020   18.0260   69.1340 C   0  0  0  0  0  0  0  0  0  0  0  0
   -5.7800   17.1470   69.9710 C   0  0  0  0  0  0  0  0  0  0  0  0
   -6.0710   19.2300   68.7030 C   0  0  0  0  0  0  0  0  0  0  0  0
   -6.2170   16.1340   70.4910 O   0  0  0  0  0  0  0  0  0  0  0  0
   -4.3390   17.5600   70.1330 C   0  0  0  0  0  0  0  0  0  0  0  0
   -3.4570   16.7250   70.2630 O   0  0  0  0  0  0  0  0  0  0  0  0
   -4.1370   19.0530   70.1270 C   0  0  0  0  0  0  0  0  0  0  0  0
   -4.8580   19.7310   69.0880 O   0  0  0  0  0  0  0  0  0  0  0  0
   -6.2710   21.1350   67.3400 F   0  0  0  0  0  0  0  0  0  0  0  0
   -4.4420   19.6550   71.4710 C   0  0  0  0  0  0  0  0  0  0  0  0
   -5.4070   18.9630   72.2940 O   0  0  0  0  0  0  0  0  0  0  0  0
   -3.3130   20.1450   72.2020 O   0  0  0  0  0  0  0  0  0  0  0  0
   -4.1880   21.0580   71.7490 C   0  0  0  0  0  0  0  0  0  0  0  0
   -4.0130   22.0300   71.0400 O   0  0  0  0  0  0  0  0  0  0  0  0
  -10.4620   15.7030   65.7630 O   0  0  0  0  0  0  0  0  0  0  0  0
  -10.3480   14.3920   65.1810 C   0  0  0  0  0  0  0  0  0  0  0  0
  -10.0390   13.4160   66.1750 O   0  0  0  0  0  0  0  0  0  0  0  0
   -9.7840   12.1670   65.6450 C   0  0  0  0  0  0  0  0  0  0  0  0
   -8.7100   11.4570   66.0110 C   0  0  0  0  0  0  0  0  0  0  0  0
  -10.7210   11.5730   64.6570 C   0  0  0  0  0  0  0  0  0  0  0  0
   -7.7540   11.9400   66.8680 O   0  0  0  0  0  0  0  0  0  0  0  0
  -11.7250   12.5580   64.0930 C   0  0  0  0  0  0  0  0  0  0  0  0
  -10.6720   10.4120   64.2870 O   0  0  0  0  0  0  0  0  0  0  0  0
  -11.6380   14.0250   64.4600 C   0  0  0  0  0  0  0  0  0  0  0  0
  -12.5740   12.1730   63.3030 O   0  0  0  0  0  0  0  0  0  0  0  0
  -12.5150   14.8060   64.1180 O   0  0  0  0  0  0  0  0  0  0  0  0
  -13.1480   15.3560   73.2070 C   0  0  0  0  0  0  0  0  0  0  0  0
  -12.2650   15.1280   74.3160 O   0  0  0  0  0  0  0  0  0  0  0  0
  -12.5730   16.4740   73.9070 O   0  0  0  0  0  0  0  0  0  0  0  0
  1 40  1  0  0  0  0
  1  2  2  0  0  0  0
  1  6  1  0  0  0  0
  2  3  1  0  0  0  0
  2 17  1  0  0  0  0
  3  4  1  0  0  0  0
  4  5  2  0  0  0  0
  4 16  1  0  0  0  0
  5  6  1  0  0  0  0
  5  7  1  0  0  0  0
  7  8  1  0  0  0  0
  7 14  1  0  0  0  0
  8  9  1  0  0  0  0
  9 10  2  0  0  0  0
  9 11  1  0  0  0  0
 11 12  1  0  0  0  0
 12 13  2  0  0  0  0
 12 14  1  0  0  0  0
 14 15  2  0  0  0  0
 15 16  1  0  0  0  0
 15 52  1  0  0  0  0
 17 18  2  0  0  0  0
 17 23  1  0  0  0  0
 18 19  1  0  0  0  0
 19 20  1  0  0  0  0
 19 21  2  0  0  0  0
 21 22  1  0  0  0  0
 22 23  2  0  0  0  0
 22 24  1  0  0  0  0
 23 25  1  0  0  0  0
 24 28  2  0  0  0  0
 24 34  1  0  0  0  0
 25 26  2  0  0  0  0
 26 27  1  0  0  0  0
 26 28  1  0  0  0  0
 27 29  2  0  0  0  0
 27 30  1  0  0  0  0
 28 33  1  0  0  0  0
 30 31  2  0  0  0  0
 30 32  1  0  0  0  0
 32 33  1  0  0  0  0
 32 35  1  0  0  0  0
 35 36  1  0  0  0  0
 35 37  1  0  0  0  0
 35 38  1  0  0  0  0
 37 38  1  0  0  0  0
 38 39  2  0  0  0  0
 40 41  1  0  0  0  0
 41 42  1  0  0  0  0
 41 49  1  0  0  0  0
 42 43  1  0  0  0  0
 43 44  2  0  0  0  0
 43 45  1  0  0  0  0
 44 46  1  0  0  0  0
 45 47  1  0  0  0  0
 45 48  2  0  0  0  0
 47 49  1  0  0  0  0
 47 50  2  0  0  0  0
 49 51  2  0  0  0  0
 52 53  1  0  0  0  0
 52 54  1  0  0  0  0
 53 54  1  0  0  0  0
M  END
