
 OpenBabel11212015563D

 53 61  0  0  1  0  0  0  0  0999 V2000
  -10.9280   15.7390   67.2770 C   0  0  0  0  0  0  0  0  0  0  0  0
  -10.5120   16.8120   67.9860 C   0  0  0  0  0  0  0  0  0  0  0  0
  -10.7120   16.9070   69.3680 O   0  0  0  0  0  0  0  0  0  0  0  0
  -11.4380   15.9200   70.0520 C   0  0  0  0  0  0  0  0  0  0  0  0
  -11.8340   14.8000   69.4210 C   0  0  0  0  0  0  0  0  0  0  0  0
  -11.5980   14.5710   67.9670 C   0  0  0  0  0  0  0  0  0  0  0  0
  -12.5790   13.7060   70.1320 C   0  0  0  0  0  0  0  0  0  0  0  0
  -11.7700   12.5460   70.0930 O   0  0  0  0  0  0  0  0  0  0  0  0
  -12.3180   11.4280   70.6410 C   0  0  0  0  0  0  0  0  0  0  0  0
  -11.9210   10.3130   70.3530 O   0  0  0  0  0  0  0  0  0  0  0  0
  -13.3580   11.6530   71.4830 O   0  0  0  0  0  0  0  0  0  0  0  0
  -13.4290   12.8560   72.2430 C   0  0  0  0  0  0  0  0  0  0  0  0
  -12.7790   14.0090   71.5650 C   0  0  0  0  0  0  0  0  0  0  0  0
  -12.3850   15.1710   72.1310 C   0  0  0  0  0  0  0  0  0  0  0  0
  -11.7260   16.1360   71.3790 O   0  0  0  0  0  0  0  0  0  0  0  0
  -14.7880   13.2270   72.3590 O   0  0  0  0  0  0  0  0  0  0  0  0
   -9.8150   17.9910   67.3520 C   0  0  0  0  0  0  0  0  0  0  0  0
  -10.4950   18.7530   66.3940 C   0  0  0  0  0  0  0  0  0  0  0  0
   -9.9320   19.8360   65.8440 N   0  0  0  0  0  0  0  0  0  0  0  0
  -10.6580   20.5690   64.9680 F   0  0  0  0  0  0  0  0  0  0  0  0
   -8.7060   20.2210   66.1120 N   0  0  0  0  0  0  0  0  0  0  0  0
   -7.9790   19.5260   66.9870 C   0  0  0  0  0  0  0  0  0  0  0  0
   -8.4880   18.3920   67.6570 C   0  0  0  0  0  0  0  0  0  0  0  0
   -6.6730   19.9520   67.2430 C   0  0  0  0  0  0  0  0  0  0  0  0
   -7.6410   17.7470   68.5800 C   0  0  0  0  0  0  0  0  0  0  0  0
   -6.3210   18.1700   68.7940 C   0  0  0  0  0  0  0  0  0  0  0  0
   -5.8400   19.2920   68.1480 C   0  0  0  0  0  0  0  0  0  0  0  0
   -5.4390   17.3860   69.6560 C   0  0  0  0  0  0  0  0  0  0  0  0
   -4.5890   19.8020   68.3270 O   0  0  0  0  0  0  0  0  0  0  0  0
   -3.8920   19.4000   69.5230 C   0  0  0  0  0  0  0  0  0  0  0  0
   -4.0430   17.9320   69.8640 C   0  0  0  0  0  0  0  0  0  0  0  0
   -3.1530   17.2080   70.2850 O   0  0  0  0  0  0  0  0  0  0  0  0
   -5.8180   16.3150   70.1090 O   0  0  0  0  0  0  0  0  0  0  0  0
   -4.3010   20.2610   70.6750 C   0  0  0  0  0  0  0  0  0  0  0  0
   -5.4280   21.1540   70.4530 O   0  0  0  0  0  0  0  0  0  0  0  0
   -4.2580   19.6300   71.9480 O   0  0  0  0  0  0  0  0  0  0  0  0
   -3.3950   20.6460   71.7610 C   0  0  0  0  0  0  0  0  0  0  0  0
   -3.3190   21.7200   72.3210 O   0  0  0  0  0  0  0  0  0  0  0  0
  -10.7140   15.6660   65.9150 O   0  0  0  0  0  0  0  0  0  0  0  0
  -10.5450   14.3700   65.3110 C   0  0  0  0  0  0  0  0  0  0  0  0
  -10.3860   13.3710   66.3080 O   0  0  0  0  0  0  0  0  0  0  0  0
  -10.0290   12.1560   65.7460 C   0  0  0  0  0  0  0  0  0  0  0  0
   -9.0490   11.4240   66.2870 C   0  0  0  0  0  0  0  0  0  0  0  0
  -10.7140   11.6830   64.5040 C   0  0  0  0  0  0  0  0  0  0  0  0
   -8.3350   11.8500   67.3810 O   0  0  0  0  0  0  0  0  0  0  0  0
  -11.8200   12.6220   64.0330 C   0  0  0  0  0  0  0  0  0  0  0  0
  -10.3750   10.7030   63.8690 O   0  0  0  0  0  0  0  0  0  0  0  0
  -11.7930   14.0610   64.5140 C   0  0  0  0  0  0  0  0  0  0  0  0
  -12.7030   12.2420   63.2860 O   0  0  0  0  0  0  0  0  0  0  0  0
  -12.6850   14.8650   64.2800 O   0  0  0  0  0  0  0  0  0  0  0  0
  -12.5880   15.4900   73.5650 C   0  0  0  0  0  0  0  0  0  0  0  0
  -12.1470   16.7390   74.1060 O   0  0  0  0  0  0  0  0  0  0  0  0
  -13.5550   16.4740   73.9600 O   0  0  0  0  0  0  0  0  0  0  0  0
  1 39  1  0  0  0  0
  1  2  2  0  0  0  0
  1  6  1  0  0  0  0
  2  3  1  0  0  0  0
  2 17  1  0  0  0  0
  3  4  1  0  0  0  0
  4  5  2  0  0  0  0
  4 15  1  0  0  0  0
  5  6  1  0  0  0  0
  5  7  1  0  0  0  0
  7  8  1  0  0  0  0
  7 13  1  0  0  0  0
  8  9  1  0  0  0  0
  9 10  2  0  0  0  0
  9 11  1  0  0  0  0
 11 12  1  0  0  0  0
 12 13  1  0  0  0  0
 12 16  1  0  0  0  0
 13 14  2  0  0  0  0
 14 15  1  0  0  0  0
 14 51  1  0  0  0  0
 17 18  2  0  0  0  0
 17 23  1  0  0  0  0
 18 19  1  0  0  0  0
 19 20  1  0  0  0  0
 19 21  2  0  0  0  0
 21 22  1  0  0  0  0
 22 23  2  0  0  0  0
 22 24  1  0  0  0  0
 23 25  1  0  0  0  0
 24 27  2  0  0  0  0
 25 26  2  0  0  0  0
 26 27  1  0  0  0  0
 26 28  1  0  0  0  0
 27 29  1  0  0  0  0
 28 31  1  0  0  0  0
 28 33  2  0  0  0  0
 29 30  1  0  0  0  0
 30 31  1  0  0  0  0
 30 34  1  0  0  0  0
 31 32  2  0  0  0  0
 34 35  1  0  0  0  0
 34 36  1  0  0  0  0
 34 37  1  0  0  0  0
 36 37  1  0  0  0  0
 37 38  2  0  0  0  0
 39 40  1  0  0  0  0
 40 41  1  0  0  0  0
 40 48  1  0  0  0  0
 41 42  1  0  0  0  0
 42 43  2  0  0  0  0
 42 44  1  0  0  0  0
 43 45  1  0  0  0  0
 44 46  1  0  0  0  0
 44 47  2  0  0  0  0
 46 48  1  0  0  0  0
 46 49  2  0  0  0  0
 48 50  2  0  0  0  0
 51 52  1  0  0  0  0
 51 53  1  0  0  0  0
 52 53  1  0  0  0  0
M  CHG  2  15   1  19   1
M  END