
 OpenBabel11252023593D

 54 62  0  0  1  0  0  0  0  0999 V2000
  -10.7380   15.6910   67.1970 C   0  0  0  0  0  0  0  0  0  0  0  0
  -10.6390   16.8590   67.8650 C   0  0  0  0  0  0  0  0  0  0  0  0
  -11.1480   17.0530   69.1590 O   0  0  0  0  0  0  0  0  0  0  0  0
  -11.7850   15.9810   69.8270 C   0  0  0  0  0  0  0  0  0  0  0  0
  -11.9230   14.7820   69.2210 C   0  0  0  0  0  0  0  0  0  0  0  0
  -11.4250   14.5050   67.8280 C   0  0  0  0  0  0  0  0  0  0  0  0
  -12.6300   13.6210   69.8880 C   0  0  0  0  0  0  0  0  0  0  0  0
  -11.7400   12.5240   69.9240 O   0  0  0  0  0  0  0  0  0  0  0  0
  -12.1580   11.4400   70.6170 C   0  0  0  0  0  0  0  0  0  0  0  0
  -11.5720   10.3210   70.4410 N   0  0  0  0  0  0  0  0  0  0  0  0
  -13.1740   11.5680   71.4950 O   0  0  0  0  0  0  0  0  0  0  0  0
  -13.5610   12.7710   71.9500 C   0  0  0  0  0  0  0  0  0  0  0  0
  -14.3670   12.9330   72.8530 O   0  0  0  0  0  0  0  0  0  0  0  0
  -12.9820   13.9330   71.2790 C   0  0  0  0  0  0  0  0  0  0  0  0
  -12.8070   15.1400   71.8550 C   0  0  0  0  0  0  0  0  0  0  0  0
  -12.2630   16.1850   71.1140 O   0  0  0  0  0  0  0  0  0  0  0  0
   -9.9070   18.0040   67.2480 C   0  0  0  0  0  0  0  0  0  0  0  0
  -10.6490   18.7290   66.3820 N   0  0  0  0  0  0  0  0  0  0  0  0
  -10.1090   19.8300   65.8940 N   0  0  0  0  0  0  0  0  0  0  0  0
  -10.8390   20.5890   65.0480 F   0  0  0  0  0  0  0  0  0  0  0  0
   -8.8880   20.2180   66.1870 N   0  0  0  0  0  0  0  0  0  0  0  0
   -8.1610   19.4810   67.0390 C   0  0  0  0  0  0  0  0  0  0  0  0
   -8.6390   18.3270   67.6150 N   0  0  0  0  0  0  0  0  0  0  0  0
   -6.8600   19.8900   67.3690 C   0  0  0  0  0  0  0  0  0  0  0  0
   -7.8640   17.6130   68.4760 C   0  0  0  0  0  0  0  0  0  0  0  0
   -6.5790   18.0370   68.8100 C   0  0  0  0  0  0  0  0  0  0  0  0
   -5.7900   17.2570   69.7490 C   0  0  0  0  0  0  0  0  0  0  0  0
   -6.0650   19.1940   68.2750 C   0  0  0  0  0  0  0  0  0  0  0  0
   -6.2330   16.1830   70.1170 O   0  0  0  0  0  0  0  0  0  0  0  0
   -4.4540   17.8200   70.1740 C   0  0  0  0  0  0  0  0  0  0  0  0
   -3.6340   17.0930   70.7070 O   0  0  0  0  0  0  0  0  0  0  0  0
   -4.2790   19.3000   69.8900 C   0  0  0  0  0  0  0  0  0  0  0  0
   -4.8550   19.7150   68.6230 O   0  0  0  0  0  0  0  0  0  0  0  0
   -6.3860   21.0140   66.8110 F   0  0  0  0  0  0  0  0  0  0  0  0
   -4.7510   20.1410   71.0540 C   0  0  0  0  0  0  0  0  0  0  0  0
   -6.1660   20.3500   71.1610 O   0  0  0  0  0  0  0  0  0  0  0  0
   -4.0470   19.9780   72.2860 O   0  0  0  0  0  0  0  0  0  0  0  0
   -3.9200   21.1750   71.6780 C   0  0  0  0  0  0  0  0  0  0  0  0
   -2.9350   21.7530   71.2650 O   0  0  0  0  0  0  0  0  0  0  0  0
  -10.1790   15.5810   65.9230 O   0  0  0  0  0  0  0  0  0  0  0  0
  -10.0840   14.2720   65.2690 C   0  0  0  0  0  0  0  0  0  0  0  0
   -9.7150   13.2710   66.1860 O   0  0  0  0  0  0  0  0  0  0  0  0
   -9.6320   12.0180   65.6040 C   0  0  0  0  0  0  0  0  0  0  0  0
   -8.6470   11.1640   65.9170 C   0  0  0  0  0  0  0  0  0  0  0  0
  -10.6670   11.5540   64.6300 C   0  0  0  0  0  0  0  0  0  0  0  0
   -7.6180   11.4810   66.7640 O   0  0  0  0  0  0  0  0  0  0  0  0
  -11.6600   12.5710   64.1220 C   0  0  0  0  0  0  0  0  0  0  0  0
  -10.7140   10.3810   64.2690 O   0  0  0  0  0  0  0  0  0  0  0  0
  -11.3510   14.0060   64.4580 C   0  0  0  0  0  0  0  0  0  0  0  0
  -12.9200   12.2740   64.5620 F   0  0  0  0  0  0  0  0  0  0  0  0
  -12.0890   14.9520   64.1440 O   0  0  0  0  0  0  0  0  0  0  0  0
  -13.1610   15.4780   73.2590 C   0  0  0  0  0  0  0  0  0  0  0  0
  -12.2300   15.1670   74.3170 O   0  0  0  0  0  0  0  0  0  0  0  0
  -12.4820   16.5350   73.9490 O   0  0  0  0  0  0  0  0  0  0  0  0
  1 40  1  0  0  0  0
  1  2  2  0  0  0  0
  1  6  1  0  0  0  0
  2  3  1  0  0  0  0
  2 17  1  0  0  0  0
  3  4  1  0  0  0  0
  4  5  2  0  0  0  0
  4 16  1  0  0  0  0
  5  6  1  0  0  0  0
  5  7  1  0  0  0  0
  7  8  1  0  0  0  0
  7 14  1  0  0  0  0
  8  9  1  0  0  0  0
  9 10  2  0  0  0  0
  9 11  1  0  0  0  0
 11 12  1  0  0  0  0
 12 13  2  0  0  0  0
 12 14  1  0  0  0  0
 14 15  2  0  0  0  0
 15 16  1  0  0  0  0
 15 52  1  0  0  0  0
 17 18  2  0  0  0  0
 17 23  1  0  0  0  0
 18 19  1  0  0  0  0
 19 20  1  0  0  0  0
 19 21  2  0  0  0  0
 21 22  1  0  0  0  0
 22 23  2  0  0  0  0
 22 24  1  0  0  0  0
 23 25  1  0  0  0  0
 24 28  2  0  0  0  0
 24 34  1  0  0  0  0
 25 26  2  0  0  0  0
 26 27  1  0  0  0  0
 26 28  1  0  0  0  0
 27 29  2  0  0  0  0
 27 30  1  0  0  0  0
 28 33  1  0  0  0  0
 30 31  2  0  0  0  0
 30 32  1  0  0  0  0
 32 33  1  0  0  0  0
 32 35  1  0  0  0  0
 35 36  1  0  0  0  0
 35 37  1  0  0  0  0
 35 38  1  0  0  0  0
 37 38  1  0  0  0  0
 38 39  2  0  0  0  0
 40 41  1  0  0  0  0
 41 42  1  0  0  0  0
 41 49  1  0  0  0  0
 42 43  1  0  0  0  0
 43 44  2  0  0  0  0
 43 45  1  0  0  0  0
 44 46  1  0  0  0  0
 45 47  1  0  0  0  0
 45 48  2  0  0  0  0
 47 49  1  0  0  0  0
 47 50  1  0  0  0  0
 49 51  2  0  0  0  0
 52 53  1  0  0  0  0
 52 54  1  0  0  0  0
 53 54  1  0  0  0  0
M  CHG  3  16   1  19   1  23   1
M  END