
 OpenBabel11142001083D

 52 60  0  0  1  0  0  0  0  0999 V2000
  -10.9250   15.6020   66.9260 C   0  0  0  0  0  0  0  0  0  0  0  0
  -10.1590   16.5490   67.5350 C   0  0  0  0  0  0  0  0  0  0  0  0
  -10.1990   16.7540   68.9280 O   0  0  0  0  0  0  0  0  0  0  0  0
  -11.0850   16.0340   69.7150 C   0  0  0  0  0  0  0  0  0  0  0  0
  -11.8400   15.0530   69.2080 C   0  0  0  0  0  0  0  0  0  0  0  0
  -11.8130   14.7090   67.7640 C   0  0  0  0  0  0  0  0  0  0  0  0
  -12.8050   14.2830   70.0690 C   0  0  0  0  0  0  0  0  0  0  0  0
  -12.4110   12.9090   70.0050 O   0  0  0  0  0  0  0  0  0  0  0  0
  -12.8570   12.0380   70.9230 C   0  0  0  0  0  0  0  0  0  0  0  0
  -12.5860   10.7930   70.7850 N   0  0  0  0  0  0  0  0  0  0  0  0
  -13.5750   12.4710   71.9730 O   0  0  0  0  0  0  0  0  0  0  0  0
  -13.7720   13.8540   72.2490 C   0  0  0  0  0  0  0  0  0  0  0  0
  -12.8270   14.7100   71.4960 C   0  0  0  0  0  0  0  0  0  0  0  0
  -12.0430   15.7160   71.9490 C   0  0  0  0  0  0  0  0  0  0  0  0
  -11.1920   16.3530   71.0480 N   0  0  0  0  0  0  0  0  0  0  0  0
  -15.0940   14.2120   71.8780 O   0  0  0  0  0  0  0  0  0  0  0  0
   -9.1100   17.4900   66.8480 C   0  0  0  0  0  0  0  0  0  0  0  0
   -9.6480   18.7280   66.6480 N   0  0  0  0  0  0  0  0  0  0  0  0
   -9.0440   20.0500   67.4140 P   0  0  0  0  0  0  0  0  0  0  0  0
   -7.5230   19.6710   67.8820 N   0  0  0  0  0  0  0  0  0  0  0  0
   -7.0880   18.4230   67.8840 C   0  0  0  0  0  0  0  0  0  0  0  0
   -7.7840   17.3010   67.3800 C   0  0  0  0  0  0  0  0  0  0  0  0
   -5.8200   18.2390   68.4240 C   0  0  0  0  0  0  0  0  0  0  0  0
   -7.1040   16.0560   67.3540 C   0  0  0  0  0  0  0  0  0  0  0  0
   -5.8210   15.9130   67.9050 C   0  0  0  0  0  0  0  0  0  0  0  0
   -5.1880   16.9940   68.4830 C   0  0  0  0  0  0  0  0  0  0  0  0
   -5.1190   14.6350   67.8200 C   0  0  0  0  0  0  0  0  0  0  0  0
   -3.9600   16.9710   69.0760 O   0  0  0  0  0  0  0  0  0  0  0  0
   -3.3580   15.7070   69.3480 C   0  0  0  0  0  0  0  0  0  0  0  0
   -3.8450   14.4740   68.6090 C   0  0  0  0  0  0  0  0  0  0  0  0
   -3.2740   13.3900   68.6340 O   0  0  0  0  0  0  0  0  0  0  0  0
   -5.5370   13.7280   67.1160 O   0  0  0  0  0  0  0  0  0  0  0  0
   -3.3330   15.4490   70.8380 C   0  0  0  0  0  0  0  0  0  0  0  0
   -2.0190   15.4390   71.4580 O   0  0  0  0  0  0  0  0  0  0  0  0
   -4.3450   16.1680   71.5560 O   0  0  0  0  0  0  0  0  0  0  0  0
   -4.4110   14.8100   71.5870 C   0  0  0  0  0  0  0  0  0  0  0  0
   -4.4240   14.0690   72.5260 O   0  0  0  0  0  0  0  0  0  0  0  0
  -10.9130   15.4060   65.5440 O   0  0  0  0  0  0  0  0  0  0  0  0
  -10.6110   14.0890   65.0370 C   0  0  0  0  0  0  0  0  0  0  0  0
  -10.4500   13.1190   66.0850 O   0  0  0  0  0  0  0  0  0  0  0  0
   -9.9440   11.9080   65.6430 C   0  0  0  0  0  0  0  0  0  0  0  0
   -9.0160   11.2370   66.3360 C   0  0  0  0  0  0  0  0  0  0  0  0
  -10.4870   11.3190   64.3950 C   0  0  0  0  0  0  0  0  0  0  0  0
   -8.4540   11.7280   67.4860 O   0  0  0  0  0  0  0  0  0  0  0  0
  -11.6880   12.0900   63.8900 C   0  0  0  0  0  0  0  0  0  0  0  0
  -10.0130   10.3670   63.8020 O   0  0  0  0  0  0  0  0  0  0  0  0
  -11.7430   13.5880   64.1360 C   0  0  0  0  0  0  0  0  0  0  0  0
  -12.6090   11.4940   63.3540 O   0  0  0  0  0  0  0  0  0  0  0  0
  -12.6090   14.2720   63.6120 O   0  0  0  0  0  0  0  0  0  0  0  0
  -12.0080   16.2050   73.3500 C   0  0  0  0  0  0  0  0  0  0  0  0
  -13.2120   16.4200   74.1030 O   0  0  0  0  0  0  0  0  0  0  0  0
  -12.3190   15.3480   74.4640 O   0  0  0  0  0  0  0  0  0  0  0  0
  1 38  1  0  0  0  0
  1  2  2  0  0  0  0
  1  6  1  0  0  0  0
  2  3  1  0  0  0  0
  2 17  1  0  0  0  0
  3  4  1  0  0  0  0
  4  5  2  0  0  0  0
  4 15  1  0  0  0  0
  5  6  1  0  0  0  0
  5  7  1  0  0  0  0
  7  8  1  0  0  0  0
  7 13  1  0  0  0  0
  8  9  1  0  0  0  0
  9 10  2  0  0  0  0
  9 11  1  0  0  0  0
 11 12  1  0  0  0  0
 12 13  1  0  0  0  0
 12 16  1  0  0  0  0
 13 14  2  0  0  0  0
 14 15  1  0  0  0  0
 14 50  1  0  0  0  0
 17 18  1  0  0  0  0
 17 22  1  0  0  0  0
 18 19  2  0  0  0  0
 19 20  2  0  0  0  0
 20 21  1  0  0  0  0
 21 22  2  0  0  0  0
 21 23  1  0  0  0  0
 22 24  1  0  0  0  0
 23 26  2  0  0  0  0
 24 25  2  0  0  0  0
 25 26  1  0  0  0  0
 25 27  1  0  0  0  0
 26 28  1  0  0  0  0
 27 30  1  0  0  0  0
 27 32  2  0  0  0  0
 28 29  1  0  0  0  0
 29 30  1  0  0  0  0
 29 33  1  0  0  0  0
 30 31  2  0  0  0  0
 33 34  1  0  0  0  0
 33 35  1  0  0  0  0
 33 36  1  0  0  0  0
 35 36  1  0  0  0  0
 36 37  2  0  0  0  0
 38 39  1  0  0  0  0
 39 40  1  0  0  0  0
 39 47  1  0  0  0  0
 40 41  1  0  0  0  0
 41 42  2  0  0  0  0
 41 43  1  0  0  0  0
 42 44  1  0  0  0  0
 43 45  1  0  0  0  0
 43 46  2  0  0  0  0
 45 47  1  0  0  0  0
 45 48  2  0  0  0  0
 47 49  2  0  0  0  0
 50 51  1  0  0  0  0
 50 52  1  0  0  0  0
 51 52  1  0  0  0  0
M  CHG  1  19   1
M  END