
 OpenBabel11232015073D

 53 61  0  0  1  0  0  0  0  0999 V2000
  -11.0650   15.7450   67.1380 C   0  0  0  0  0  0  0  0  0  0  0  0
  -10.5790   16.7670   67.8690 C   0  0  0  0  0  0  0  0  0  0  0  0
  -10.7730   16.9010   69.2310 O   0  0  0  0  0  0  0  0  0  0  0  0
  -11.4700   15.9080   69.9040 C   0  0  0  0  0  0  0  0  0  0  0  0
  -11.9590   14.8210   69.2800 C   0  0  0  0  0  0  0  0  0  0  0  0
  -11.8460   14.6370   67.7990 C   0  0  0  0  0  0  0  0  0  0  0  0
  -12.7050   13.7660   70.0590 C   0  0  0  0  0  0  0  0  0  0  0  0
  -11.9820   12.5080   69.9250 N   0  0  0  0  0  0  0  0  0  0  0  0
  -12.4930   11.4390   70.5870 C   0  0  0  0  0  0  0  0  0  0  0  0
  -12.4920   10.2550   70.0950 N   0  0  0  0  0  0  0  0  0  0  0  0
  -12.9380   11.6840   71.8360 N   0  0  0  0  0  0  0  0  0  0  0  0
  -13.5120   12.9380   72.2610 C   0  0  0  0  0  0  0  0  0  0  0  0
  -12.8250   14.0510   71.5330 C   0  0  0  0  0  0  0  0  0  0  0  0
  -12.3150   15.1800   72.0750 C   0  0  0  0  0  0  0  0  0  0  0  0
  -11.6560   16.0790   71.2490 N   0  0  0  0  0  0  0  0  0  0  0  0
   -9.7660   17.8210   67.2520 C   0  0  0  0  0  0  0  0  0  0  0  0
  -10.4060   18.7170   66.4050 C   0  0  0  0  0  0  0  0  0  0  0  0
   -9.7470   19.7720   65.9210 N   0  0  0  0  0  0  0  0  0  0  0  0
  -10.3900   20.6220   65.0980 F   0  0  0  0  0  0  0  0  0  0  0  0
   -8.4910   20.0360   66.2420 N   0  0  0  0  0  0  0  0  0  0  0  0
   -7.8280   19.2070   67.0600 C   0  0  0  0  0  0  0  0  0  0  0  0
   -8.4170   18.0410   67.5750 C   0  0  0  0  0  0  0  0  0  0  0  0
   -6.5210   19.5110   67.4470 C   0  0  0  0  0  0  0  0  0  0  0  0
   -7.6410   17.1720   68.3830 C   0  0  0  0  0  0  0  0  0  0  0  0
   -6.3180   17.4890   68.7090 C   0  0  0  0  0  0  0  0  0  0  0  0
   -5.4900   16.5470   69.4750 C   0  0  0  0  0  0  0  0  0  0  0  0
   -5.7700   18.6920   68.2950 C   0  0  0  0  0  0  0  0  0  0  0  0
   -5.9120   15.4610   69.8310 O   0  0  0  0  0  0  0  0  0  0  0  0
   -4.0720   16.9940   69.7570 C   0  0  0  0  0  0  0  0  0  0  0  0
   -3.1730   16.1870   69.9240 O   0  0  0  0  0  0  0  0  0  0  0  0
   -3.9140   18.4950   69.7900 C   0  0  0  0  0  0  0  0  0  0  0  0
   -4.5300   19.1410   68.6640 O   0  0  0  0  0  0  0  0  0  0  0  0
   -5.9710   20.6510   66.9990 F   0  0  0  0  0  0  0  0  0  0  0  0
   -4.4200   19.0580   71.0820 C   0  0  0  0  0  0  0  0  0  0  0  0
   -5.1810   18.1600   71.9350 O   0  0  0  0  0  0  0  0  0  0  0  0
   -3.4990   19.9110   71.7540 O   0  0  0  0  0  0  0  0  0  0  0  0
   -4.6400   20.4840   71.3250 C   0  0  0  0  0  0  0  0  0  0  0  0
   -5.5250   21.0190   71.9700 O   0  0  0  0  0  0  0  0  0  0  0  0
  -10.7690   15.6560   65.7850 O   0  0  0  0  0  0  0  0  0  0  0  0
  -10.5740   14.3320   65.2640 C   0  0  0  0  0  0  0  0  0  0  0  0
  -10.4620   13.3750   66.3160 O   0  0  0  0  0  0  0  0  0  0  0  0
  -10.1220   12.1220   65.8320 C   0  0  0  0  0  0  0  0  0  0  0  0
   -9.2170   11.3630   66.4570 C   0  0  0  0  0  0  0  0  0  0  0  0
  -10.7770   11.6030   64.5970 C   0  0  0  0  0  0  0  0  0  0  0  0
   -8.5590   11.7800   67.5850 O   0  0  0  0  0  0  0  0  0  0  0  0
  -11.8720   12.5190   64.0850 C   0  0  0  0  0  0  0  0  0  0  0  0
  -10.4480   10.5880   64.0120 O   0  0  0  0  0  0  0  0  0  0  0  0
  -11.7860   13.9960   64.4100 C   0  0  0  0  0  0  0  0  0  0  0  0
  -12.8230   12.0760   63.4650 O   0  0  0  0  0  0  0  0  0  0  0  0
  -12.6150   14.7990   64.0110 O   0  0  0  0  0  0  0  0  0  0  0  0
  -12.3900   15.5450   73.5080 C   0  0  0  0  0  0  0  0  0  0  0  0
  -12.0290   16.8510   73.9740 O   0  0  0  0  0  0  0  0  0  0  0  0
  -13.4070   16.4330   74.0080 O   0  0  0  0  0  0  0  0  0  0  0  0
  1 39  1  0  0  0  0
  1  2  2  0  0  0  0
  1  6  1  0  0  0  0
  2  3  1  0  0  0  0
  2 16  1  0  0  0  0
  3  4  1  0  0  0  0
  4  5  2  0  0  0  0
  4 15  1  0  0  0  0
  5  6  1  0  0  0  0
  5  7  1  0  0  0  0
  7  8  1  0  0  0  0
  7 13  1  0  0  0  0
  8  9  1  0  0  0  0
  9 10  2  0  0  0  0
  9 11  1  0  0  0  0
 11 12  1  0  0  0  0
 12 13  1  0  0  0  0
 13 14  2  0  0  0  0
 14 15  1  0  0  0  0
 14 51  1  0  0  0  0
 16 17  2  0  0  0  0
 16 22  1  0  0  0  0
 17 18  1  0  0  0  0
 18 19  1  0  0  0  0
 18 20  2  0  0  0  0
 20 21  1  0  0  0  0
 21 22  2  0  0  0  0
 21 23  1  0  0  0  0
 22 24  1  0  0  0  0
 23 27  2  0  0  0  0
 23 33  1  0  0  0  0
 24 25  2  0  0  0  0
 25 26  1  0  0  0  0
 25 27  1  0  0  0  0
 26 28  2  0  0  0  0
 26 29  1  0  0  0  0
 27 32  1  0  0  0  0
 29 30  2  0  0  0  0
 29 31  1  0  0  0  0
 31 32  1  0  0  0  0
 31 34  1  0  0  0  0
 34 35  1  0  0  0  0
 34 36  1  0  0  0  0
 34 37  1  0  0  0  0
 36 37  1  0  0  0  0
 37 38  2  0  0  0  0
 39 40  1  0  0  0  0
 40 41  1  0  0  0  0
 40 48  1  0  0  0  0
 41 42  1  0  0  0  0
 42 43  2  0  0  0  0
 42 44  1  0  0  0  0
 43 45  1  0  0  0  0
 44 46  1  0  0  0  0
 44 47  2  0  0  0  0
 46 48  1  0  0  0  0
 46 49  2  0  0  0  0
 48 50  2  0  0  0  0
 51 52  1  0  0  0  0
 51 53  1  0  0  0  0
 52 53  1  0  0  0  0
M  CHG  1  18   1
M  END