
 OpenBabel10192022373D

 50 58  0  0  1  0  0  0  0  0999 V2000
  -12.4660   10.1910   70.1160 O   0  0  0  0  0  0  0  0  0  0  0  0
  -12.4860   11.3280   70.5690 C   0  0  0  0  0  0  0  0  0  0  0  0
  -13.0670   11.5430   71.7990 N   0  0  0  0  0  0  0  0  0  0  0  0
  -13.1310   12.7490   72.2520 C   0  0  0  0  0  0  0  0  0  0  0  0
  -12.6140   13.9180   71.5300 C   0  0  0  0  0  0  0  0  0  0  0  0
  -11.9700   13.5510   70.2460 C   0  0  0  0  0  0  0  0  0  0  0  0
  -11.9210   12.3320   69.8150 N   0  0  0  0  0  0  0  0  0  0  0  0
  -11.3580   14.6390   69.4420 C   0  0  0  0  0  0  0  0  0  0  0  0
  -10.6980   14.2800   68.1600 C   0  0  0  0  0  0  0  0  0  0  0  0
  -10.0570   15.4580   67.4690 C   0  0  0  0  0  0  0  0  0  0  0  0
  -10.1840   16.6930   68.0100 C   0  0  0  0  0  0  0  0  0  0  0  0
  -10.8850   16.9540   69.1890 O   0  0  0  0  0  0  0  0  0  0  0  0
  -11.4430   15.8940   69.8950 C   0  0  0  0  0  0  0  0  0  0  0  0
  -12.0890   16.1810   71.0720 N   0  0  0  0  0  0  0  0  0  0  0  0
  -12.6560   15.2170   71.9070 C   0  0  0  0  0  0  0  0  0  0  0  0
   -9.5940   17.8930   67.3880 C   0  0  0  0  0  0  0  0  0  0  0  0
  -10.4190   18.5470   66.5420 N   0  0  0  0  0  0  0  0  0  0  0  0
   -9.9520   19.6950   66.0470 C   0  0  0  0  0  0  0  0  0  0  0  0
   -8.7640   20.2490   66.3210 N   0  0  0  0  0  0  0  0  0  0  0  0
   -7.9560   19.5820   67.1500 C   0  0  0  0  0  0  0  0  0  0  0  0
   -8.3020   18.3410   67.7040 C   0  0  0  0  0  0  0  0  0  0  0  0
   -6.7340   20.1520   67.4920 C   0  0  0  0  0  0  0  0  0  0  0  0
   -7.3640   17.6530   68.5140 C   0  0  0  0  0  0  0  0  0  0  0  0
   -6.1340   18.2400   68.8150 C   0  0  0  0  0  0  0  0  0  0  0  0
   -5.8380   19.5150   68.3530 C   0  0  0  0  0  0  0  0  0  0  0  0
   -5.1410   17.5170   69.6200 C   0  0  0  0  0  0  0  0  0  0  0  0
   -4.7100   20.2130   68.6880 O   0  0  0  0  0  0  0  0  0  0  0  0
   -4.0510   19.7890   69.8910 C   0  0  0  0  0  0  0  0  0  0  0  0
   -3.9050   18.2920   70.0150 C   0  0  0  0  0  0  0  0  0  0  0  0
   -2.9060   17.7250   70.4340 O   0  0  0  0  0  0  0  0  0  0  0  0
   -5.2910   16.3470   69.9340 O   0  0  0  0  0  0  0  0  0  0  0  0
   -4.7100   20.3660   71.1070 C   0  0  0  0  0  0  0  0  0  0  0  0
   -6.1520   20.2500   71.1900 O   0  0  0  0  0  0  0  0  0  0  0  0
   -4.0070   20.1110   72.3270 O   0  0  0  0  0  0  0  0  0  0  0  0
   -4.1100   21.4020   71.9510 C   0  0  0  0  0  0  0  0  0  0  0  0
   -4.6240   22.3320   72.5220 O   0  0  0  0  0  0  0  0  0  0  0  0
   -9.3600   15.2600   66.2740 O   0  0  0  0  0  0  0  0  0  0  0  0
   -9.9760   14.4660   65.2430 C   0  0  0  0  0  0  0  0  0  0  0  0
  -10.2530   13.1550   65.7260 O   0  0  0  0  0  0  0  0  0  0  0  0
  -10.8150   12.3040   64.7440 C   0  0  0  0  0  0  0  0  0  0  0  0
   -9.9830   12.2190   63.6100 O   0  0  0  0  0  0  0  0  0  0  0  0
  -12.2150   12.7500   64.3830 C   0  0  0  0  0  0  0  0  0  0  0  0
  -13.0560   12.0470   63.8440 O   0  0  0  0  0  0  0  0  0  0  0  0
  -12.4470   14.2120   64.6690 C   0  0  0  0  0  0  0  0  0  0  0  0
  -13.5850   14.6280   64.8290 O   0  0  0  0  0  0  0  0  0  0  0  0
  -11.2650   15.1510   64.7890 C   0  0  0  0  0  0  0  0  0  0  0  0
  -11.3800   16.3320   64.4930 O   0  0  0  0  0  0  0  0  0  0  0  0
  -13.2480   15.7500   73.1650 C   0  0  0  0  0  0  0  0  0  0  0  0
  -12.7140   15.5420   74.4810 O   0  0  0  0  0  0  0  0  0  0  0  0
  -12.6250   16.8400   73.8660 O   0  0  0  0  0  0  0  0  0  0  0  0
  1  2  2  0  0  0  0
  2  3  1  0  0  0  0
  2  7  1  0  0  0  0
  3  4  2  0  0  0  0
  4  5  1  0  0  0  0
  5  6  1  0  0  0  0
  5 15  2  0  0  0  0
  6  7  2  0  0  0  0
  6  8  1  0  0  0  0
  8  9  1  0  0  0  0
  8 13  2  0  0  0  0
  9 10  1  0  0  0  0
 10 11  2  0  0  0  0
 10 37  1  0  0  0  0
 11 12  1  0  0  0  0
 11 16  1  0  0  0  0
 12 13  1  0  0  0  0
 13 14  1  0  0  0  0
 14 15  1  0  0  0  0
 15 48  1  0  0  0  0
 16 17  2  0  0  0  0
 16 21  1  0  0  0  0
 17 18  1  0  0  0  0
 18 19  2  0  0  0  0
 19 20  1  0  0  0  0
 20 21  2  0  0  0  0
 20 22  1  0  0  0  0
 21 23  1  0  0  0  0
 22 25  2  0  0  0  0
 23 24  2  0  0  0  0
 24 25  1  0  0  0  0
 24 26  1  0  0  0  0
 25 27  1  0  0  0  0
 26 29  1  0  0  0  0
 26 31  2  0  0  0  0
 27 28  1  0  0  0  0
 28 29  1  0  0  0  0
 28 32  1  0  0  0  0
 29 30  2  0  0  0  0
 32 33  1  0  0  0  0
 32 34  1  0  0  0  0
 32 35  1  0  0  0  0
 34 35  1  0  0  0  0
 35 36  2  0  0  0  0
 37 38  1  0  0  0  0
 38 39  1  0  0  0  0
 38 46  1  0  0  0  0
 39 40  1  0  0  0  0
 40 41  1  0  0  0  0
 40 42  1  0  0  0  0
 42 43  2  0  0  0  0
 42 44  1  0  0  0  0
 44 45  2  0  0  0  0
 44 46  1  0  0  0  0
 46 47  2  0  0  0  0
 48 49  1  0  0  0  0
 48 50  1  0  0  0  0
 49 50  1  0  0  0  0
M  END
