
 OpenBabel11262000103D

 54 62  0  0  1  0  0  0  0  0999 V2000
   -9.9730   15.4810   67.7510 C   0  0  0  0  0  0  0  0  0  0  0  0
  -10.0140   16.7250   68.2780 C   0  0  0  0  0  0  0  0  0  0  0  0
  -10.5650   17.0340   69.5190 O   0  0  0  0  0  0  0  0  0  0  0  0
  -11.1930   16.0400   70.2360 C   0  0  0  0  0  0  0  0  0  0  0  0
  -11.2360   14.7410   69.7890 C   0  0  0  0  0  0  0  0  0  0  0  0
  -10.5660   14.3380   68.5260 C   0  0  0  0  0  0  0  0  0  0  0  0
  -11.9550   13.8290   70.5500 C   0  0  0  0  0  0  0  0  0  0  0  0
  -12.0590   12.5180   70.0730 O   0  0  0  0  0  0  0  0  0  0  0  0
  -12.6410   11.4850   70.8020 C   0  0  0  0  0  0  0  0  0  0  0  0
  -12.6800   10.3460   70.3550 O   0  0  0  0  0  0  0  0  0  0  0  0
  -13.0900   11.8040   72.0380 O   0  0  0  0  0  0  0  0  0  0  0  0
  -13.3910   13.1470   72.4200 C   0  0  0  0  0  0  0  0  0  0  0  0
  -12.5990   14.1900   71.7100 C   0  0  0  0  0  0  0  0  0  0  0  0
  -12.4980   15.5240   72.1230 C   0  0  0  0  0  0  0  0  0  0  0  0
  -11.7910   16.4300   71.3820 N   0  0  0  0  0  0  0  0  0  0  0  0
  -14.7820   13.3680   72.2670 O   0  0  0  0  0  0  0  0  0  0  0  0
   -9.4740   17.9040   67.5730 C   0  0  0  0  0  0  0  0  0  0  0  0
  -10.3660   18.5210   66.7600 N   0  0  0  0  0  0  0  0  0  0  0  0
   -9.9600   19.6490   66.1520 C   0  0  0  0  0  0  0  0  0  0  0  0
  -10.8310   20.2630   65.3400 F   0  0  0  0  0  0  0  0  0  0  0  0
   -8.7170   20.2230   66.3310 C   0  0  0  0  0  0  0  0  0  0  0  0
   -7.8010   19.5930   67.1770 C   0  0  0  0  0  0  0  0  0  0  0  0
   -8.1540   18.3700   67.7890 C   0  0  0  0  0  0  0  0  0  0  0  0
   -6.5500   20.1720   67.4530 C   0  0  0  0  0  0  0  0  0  0  0  0
   -7.1740   17.7120   68.5730 C   0  0  0  0  0  0  0  0  0  0  0  0
   -5.9290   18.3070   68.8180 C   0  0  0  0  0  0  0  0  0  0  0  0
   -4.9220   17.6150   69.6340 C   0  0  0  0  0  0  0  0  0  0  0  0
   -5.6380   19.5680   68.3180 C   0  0  0  0  0  0  0  0  0  0  0  0
   -5.0910   16.4820   70.0550 O   0  0  0  0  0  0  0  0  0  0  0  0
   -3.6670   18.3940   69.9540 C   0  0  0  0  0  0  0  0  0  0  0  0
   -2.6430   17.8320   70.3120 O   0  0  0  0  0  0  0  0  0  0  0  0
   -3.8400   19.8870   69.8480 C   0  0  0  0  0  0  0  0  0  0  0  0
   -4.5090   20.2730   68.6360 O   0  0  0  0  0  0  0  0  0  0  0  0
   -6.2420   21.3610   66.9100 F   0  0  0  0  0  0  0  0  0  0  0  0
   -4.5230   20.4550   71.0640 C   0  0  0  0  0  0  0  0  0  0  0  0
   -5.9440   20.7100   70.9720 O   0  0  0  0  0  0  0  0  0  0  0  0
   -4.1310   19.8930   72.3200 O   0  0  0  0  0  0  0  0  0  0  0  0
   -3.7640   21.1590   72.0840 C   0  0  0  0  0  0  0  0  0  0  0  0
   -2.6750   21.6790   72.0950 O   0  0  0  0  0  0  0  0  0  0  0  0
   -9.4230   15.2390   66.4890 O   0  0  0  0  0  0  0  0  0  0  0  0
  -10.0430   14.2330   65.6720 C   0  0  0  0  0  0  0  0  0  0  0  0
  -10.6450   13.2130   66.4800 O   0  0  0  0  0  0  0  0  0  0  0  0
  -11.0560   12.1010   65.7710 C   0  0  0  0  0  0  0  0  0  0  0  0
  -10.9570   10.8690   66.2890 C   0  0  0  0  0  0  0  0  0  0  0  0
  -11.6620   12.2610   64.4220 C   0  0  0  0  0  0  0  0  0  0  0  0
  -10.4150   10.6200   67.5240 O   0  0  0  0  0  0  0  0  0  0  0  0
  -11.8890   13.7120   64.0380 C   0  0  0  0  0  0  0  0  0  0  0  0
  -11.9230   11.3380   63.6710 O   0  0  0  0  0  0  0  0  0  0  0  0
  -11.1550   14.7990   64.8010 C   0  0  0  0  0  0  0  0  0  0  0  0
  -12.6500   13.9940   63.1270 O   0  0  0  0  0  0  0  0  0  0  0  0
  -11.4640   15.9740   64.6840 O   0  0  0  0  0  0  0  0  0  0  0  0
  -13.1490   16.0100   73.3970 C   0  0  0  0  0  0  0  0  0  0  0  0
  -12.5830   15.5920   74.6490 O   0  0  0  0  0  0  0  0  0  0  0  0
  -12.4190   16.9500   74.1980 O   0  0  0  0  0  0  0  0  0  0  0  0
  1 40  1  0  0  0  0
  1  2  2  0  0  0  0
  1  6  1  0  0  0  0
  2  3  1  0  0  0  0
  2 17  1  0  0  0  0
  3  4  1  0  0  0  0
  4  5  2  0  0  0  0
  4 15  1  0  0  0  0
  5  6  1  0  0  0  0
  5  7  1  0  0  0  0
  7  8  1  0  0  0  0
  7 13  2  0  0  0  0
  8  9  1  0  0  0  0
  9 10  2  0  0  0  0
  9 11  1  0  0  0  0
 11 12  1  0  0  0  0
 12 13  1  0  0  0  0
 12 16  1  0  0  0  0
 13 14  1  0  0  0  0
 14 15  2  0  0  0  0
 14 52  1  0  0  0  0
 17 18  2  0  0  0  0
 17 23  1  0  0  0  0
 18 19  1  0  0  0  0
 19 20  1  0  0  0  0
 19 21  2  0  0  0  0
 21 22  1  0  0  0  0
 22 23  2  0  0  0  0
 22 24  1  0  0  0  0
 23 25  1  0  0  0  0
 24 28  2  0  0  0  0
 24 34  1  0  0  0  0
 25 26  2  0  0  0  0
 26 27  1  0  0  0  0
 26 28  1  0  0  0  0
 27 29  2  0  0  0  0
 27 30  1  0  0  0  0
 28 33  1  0  0  0  0
 30 31  2  0  0  0  0
 30 32  1  0  0  0  0
 32 33  1  0  0  0  0
 32 35  1  0  0  0  0
 35 36  1  0  0  0  0
 35 37  1  0  0  0  0
 35 38  1  0  0  0  0
 37 38  1  0  0  0  0
 38 39  2  0  0  0  0
 40 41  1  0  0  0  0
 41 42  1  0  0  0  0
 41 49  1  0  0  0  0
 42 43  1  0  0  0  0
 43 44  2  0  0  0  0
 43 45  1  0  0  0  0
 44 46  1  0  0  0  0
 45 47  1  0  0  0  0
 45 48  2  0  0  0  0
 47 49  1  0  0  0  0
 47 50  2  0  0  0  0
 49 51  2  0  0  0  0
 52 53  1  0  0  0  0
 52 54  1  0  0  0  0
 53 54  1  0  0  0  0
M  END
