
 OpenBabel11222000443D

 55 63  0  0  1  0  0  0  0  0999 V2000
   -9.9250   18.0330   67.3840 C   0  0  0  0  0  0  0  0  0  0  0  0
  -10.5630   18.8270   66.4330 C   0  0  0  0  0  0  0  0  0  0  0  0
   -9.9130   19.8300   65.8370 N   0  0  0  0  0  0  0  0  0  0  0  0
  -10.5480   20.5620   64.9000 F   0  0  0  0  0  0  0  0  0  0  0  0
   -8.6580   20.1260   66.1160 N   0  0  0  0  0  0  0  0  0  0  0  0
   -7.9830   19.4290   67.0400 C   0  0  0  0  0  0  0  0  0  0  0  0
   -8.5880   18.3430   67.7070 C   0  0  0  0  0  0  0  0  0  0  0  0
   -7.8340   17.6300   68.6630 C   0  0  0  0  0  0  0  0  0  0  0  0
   -6.5140   17.9940   68.9630 C   0  0  0  0  0  0  0  0  0  0  0  0
   -5.7670   17.2380   69.9710 C   0  0  0  0  0  0  0  0  0  0  0  0
   -6.2710   16.2750   70.5260 O   0  0  0  0  0  0  0  0  0  0  0  0
   -4.3570   17.6930   70.2560 C   0  0  0  0  0  0  0  0  0  0  0  0
   -3.5430   16.9140   70.7260 O   0  0  0  0  0  0  0  0  0  0  0  0
   -4.0830   19.1330   69.8890 C   0  0  0  0  0  0  0  0  0  0  0  0
   -4.6560   19.5100   68.6200 O   0  0  0  0  0  0  0  0  0  0  0  0
   -5.9180   19.0700   68.3280 C   0  0  0  0  0  0  0  0  0  0  0  0
   -6.6550   19.7720   67.3580 C   0  0  0  0  0  0  0  0  0  0  0  0
   -6.0610   20.8940   66.6910 C   0  0  0  0  0  0  0  0  0  0  0  0
   -5.6380   21.8030   66.1020 N   0  0  0  0  0  0  0  0  0  0  0  0
  -10.7020   16.9390   68.0160 C   0  0  0  0  0  0  0  0  0  0  0  0
  -11.2410   15.9270   67.3030 C   0  0  0  0  0  0  0  0  0  0  0  0
  -11.8960   14.7640   68.0030 C   0  0  0  0  0  0  0  0  0  0  0  0
  -11.9370   14.9220   69.4950 C   0  0  0  0  0  0  0  0  0  0  0  0
  -11.4490   16.0100   70.1200 C   0  0  0  0  0  0  0  0  0  0  0  0
  -12.5930   13.7970   70.2450 C   0  0  0  0  0  0  0  0  0  0  0  0
  -10.7970   17.0250   69.4070 O   0  0  0  0  0  0  0  0  0  0  0  0
  -11.5630   16.1540   71.4840 O   0  0  0  0  0  0  0  0  0  0  0  0
  -12.1930   15.1920   72.2690 C   0  0  0  0  0  0  0  0  0  0  0  0
  -12.6770   14.0670   71.6990 C   0  0  0  0  0  0  0  0  0  0  0  0
  -13.3590   12.9190   72.3520 C   0  0  0  0  0  0  0  0  0  0  0  0
  -13.0190   11.6700   71.7620 O   0  0  0  0  0  0  0  0  0  0  0  0
  -14.7390   13.1580   72.1720 O   0  0  0  0  0  0  0  0  0  0  0  0
  -12.1060   11.5270   70.7720 C   0  0  0  0  0  0  0  0  0  0  0  0
  -11.7610   12.6600   70.1010 O   0  0  0  0  0  0  0  0  0  0  0  0
  -11.5970   10.4530   70.5000 O   0  0  0  0  0  0  0  0  0  0  0  0
  -11.1340   15.8910   65.9200 O   0  0  0  0  0  0  0  0  0  0  0  0
  -10.7650   14.6250   65.3150 C   0  0  0  0  0  0  0  0  0  0  0  0
  -10.4790   13.6540   66.3160 O   0  0  0  0  0  0  0  0  0  0  0  0
  -10.0600   12.4450   65.7850 C   0  0  0  0  0  0  0  0  0  0  0  0
   -9.0300   11.7740   66.3170 C   0  0  0  0  0  0  0  0  0  0  0  0
  -10.7640   11.8510   64.6140 C   0  0  0  0  0  0  0  0  0  0  0  0
   -8.2880   12.2520   67.3680 O   0  0  0  0  0  0  0  0  0  0  0  0
  -11.8910   12.7140   64.0850 C   0  0  0  0  0  0  0  0  0  0  0  0
  -10.4460   10.8000   64.0870 O   0  0  0  0  0  0  0  0  0  0  0  0
  -11.9140   14.1900   64.4210 C   0  0  0  0  0  0  0  0  0  0  0  0
  -12.7790   12.2280   63.4050 O   0  0  0  0  0  0  0  0  0  0  0  0
  -12.7650   14.9460   63.9720 O   0  0  0  0  0  0  0  0  0  0  0  0
  -12.2840   15.5260   73.7140 C   0  0  0  0  0  0  0  0  0  0  0  0
  -12.0290   16.8680   74.1640 O   0  0  0  0  0  0  0  0  0  0  0  0
  -13.3660   16.3380   74.1980 O   0  0  0  0  0  0  0  0  0  0  0  0
   -4.4370   20.0820   71.0080 C   0  0  0  0  0  0  0  0  0  0  0  0
   -5.8020   20.5290   71.0520 O   0  0  0  0  0  0  0  0  0  0  0  0
   -3.8520   19.7940   72.2830 O   0  0  0  0  0  0  0  0  0  0  0  0
   -3.4660   20.9330   71.6870 C   0  0  0  0  0  0  0  0  0  0  0  0
   -2.3700   21.3300   71.3420 O   0  0  0  0  0  0  0  0  0  0  0  0
  1 20  1  0  0  0  0
  1  2  2  0  0  0  0
  1  7  1  0  0  0  0
  2  3  1  0  0  0  0
  3  4  1  0  0  0  0
  3  5  2  0  0  0  0
  5  6  1  0  0  0  0
  6  7  2  0  0  0  0
  6 17  1  0  0  0  0
  7  8  1  0  0  0  0
  8  9  2  0  0  0  0
  9 10  1  0  0  0  0
  9 16  1  0  0  0  0
 10 11  2  0  0  0  0
 10 12  1  0  0  0  0
 12 13  2  0  0  0  0
 12 14  1  0  0  0  0
 14 15  1  0  0  0  0
 14 51  1  0  0  0  0
 15 16  1  0  0  0  0
 16 17  2  0  0  0  0
 17 18  1  0  0  0  0
 18 19  3  0  0  0  0
 20 21  2  0  0  0  0
 20 26  1  0  0  0  0
 21 36  1  0  0  0  0
 21 22  1  0  0  0  0
 22 23  1  0  0  0  0
 23 24  2  0  0  0  0
 23 25  1  0  0  0  0
 24 26  1  0  0  0  0
 24 27  1  0  0  0  0
 25 34  1  0  0  0  0
 25 29  1  0  0  0  0
 27 28  1  0  0  0  0
 28 29  2  0  0  0  0
 28 48  1  0  0  0  0
 29 30  1  0  0  0  0
 30 31  1  0  0  0  0
 30 32  1  0  0  0  0
 31 33  1  0  0  0  0
 33 34  1  0  0  0  0
 33 35  2  0  0  0  0
 36 37  1  0  0  0  0
 37 38  1  0  0  0  0
 37 45  1  0  0  0  0
 38 39  1  0  0  0  0
 39 40  2  0  0  0  0
 39 41  1  0  0  0  0
 40 42  1  0  0  0  0
 41 43  1  0  0  0  0
 41 44  2  0  0  0  0
 43 45  1  0  0  0  0
 43 46  2  0  0  0  0
 45 47  2  0  0  0  0
 48 49  1  0  0  0  0
 48 50  1  0  0  0  0
 49 50  1  0  0  0  0
 51 52  1  0  0  0  0
 51 53  1  0  0  0  0
 51 54  1  0  0  0  0
 53 54  1  0  0  0  0
 54 55  2  0  0  0  0
M  CHG  2  27   1   3   1
M  END