
 OpenBabel11212023563D

 54 62  0  0  1  0  0  0  0  0999 V2000
  -10.9020   15.7450   67.1870 C   0  0  0  0  0  0  0  0  0  0  0  0
  -10.6370   16.8650   67.9050 C   0  0  0  0  0  0  0  0  0  0  0  0
  -11.0390   16.9800   69.2490 O   0  0  0  0  0  0  0  0  0  0  0  0
  -11.7260   15.9300   69.8790 C   0  0  0  0  0  0  0  0  0  0  0  0
  -11.9280   14.7570   69.2480 C   0  0  0  0  0  0  0  0  0  0  0  0
  -11.5210   14.5340   67.8320 C   0  0  0  0  0  0  0  0  0  0  0  0
  -12.6170   13.5890   69.9020 C   0  0  0  0  0  0  0  0  0  0  0  0
  -11.7150   12.4990   69.9190 O   0  0  0  0  0  0  0  0  0  0  0  0
  -12.1380   11.3990   70.5800 C   0  0  0  0  0  0  0  0  0  0  0  0
  -11.5820   10.2740   70.3460 N   0  0  0  0  0  0  0  0  0  0  0  0
  -13.1410   11.5130   71.4760 O   0  0  0  0  0  0  0  0  0  0  0  0
  -13.5320   12.7100   71.9520 C   0  0  0  0  0  0  0  0  0  0  0  0
  -14.3550   12.8470   72.8450 O   0  0  0  0  0  0  0  0  0  0  0  0
  -12.9680   13.8880   71.2940 C   0  0  0  0  0  0  0  0  0  0  0  0
  -12.7910   15.0920   71.8800 C   0  0  0  0  0  0  0  0  0  0  0  0
  -12.1850   16.1270   71.1700 O   0  0  0  0  0  0  0  0  0  0  0  0
   -9.8580   18.0310   67.3430 C   0  0  0  0  0  0  0  0  0  0  0  0
  -10.4760   18.8130   66.3560 C   0  0  0  0  0  0  0  0  0  0  0  0
   -9.8840   19.8860   65.8300 N   0  0  0  0  0  0  0  0  0  0  0  0
  -10.5460   20.6140   64.9100 F   0  0  0  0  0  0  0  0  0  0  0  0
   -8.6720   20.2580   66.1690 N   0  0  0  0  0  0  0  0  0  0  0  0
   -7.9880   19.5480   67.0630 C   0  0  0  0  0  0  0  0  0  0  0  0
   -8.5270   18.4010   67.6940 C   0  0  0  0  0  0  0  0  0  0  0  0
   -6.6920   19.9660   67.3680 C   0  0  0  0  0  0  0  0  0  0  0  0
   -7.6850   17.7290   68.6180 C   0  0  0  0  0  0  0  0  0  0  0  0
   -6.3730   18.1670   68.8830 C   0  0  0  0  0  0  0  0  0  0  0  0
   -5.5110   17.4070   69.7900 C   0  0  0  0  0  0  0  0  0  0  0  0
   -5.8730   19.3000   68.2760 C   0  0  0  0  0  0  0  0  0  0  0  0
   -5.8940   16.3310   70.2270 O   0  0  0  0  0  0  0  0  0  0  0  0
   -4.1440   17.9860   70.0930 C   0  0  0  0  0  0  0  0  0  0  0  0
   -3.2820   17.2760   70.5900 O   0  0  0  0  0  0  0  0  0  0  0  0
   -3.9740   19.4480   69.7360 C   0  0  0  0  0  0  0  0  0  0  0  0
   -4.6370   19.8250   68.5140 O   0  0  0  0  0  0  0  0  0  0  0  0
   -6.2170   21.0670   66.7620 F   0  0  0  0  0  0  0  0  0  0  0  0
   -4.3090   20.3590   70.8950 C   0  0  0  0  0  0  0  0  0  0  0  0
   -5.6240   20.9420   70.8890 O   0  0  0  0  0  0  0  0  0  0  0  0
   -3.8370   19.9390   72.1860 O   0  0  0  0  0  0  0  0  0  0  0  0
   -3.3080   21.0590   71.6790 C   0  0  0  0  0  0  0  0  0  0  0  0
   -2.1570   21.3670   71.4220 O   0  0  0  0  0  0  0  0  0  0  0  0
  -10.5290   15.6260   65.8540 O   0  0  0  0  0  0  0  0  0  0  0  0
  -10.2330   14.3030   65.3590 C   0  0  0  0  0  0  0  0  0  0  0  0
   -9.7660   13.4810   66.4170 O   0  0  0  0  0  0  0  0  0  0  0  0
   -9.4950   12.1690   66.0700 C   0  0  0  0  0  0  0  0  0  0  0  0
   -8.5130   11.5010   66.6850 C   0  0  0  0  0  0  0  0  0  0  0  0
  -10.3020   11.4400   65.0410 C   0  0  0  0  0  0  0  0  0  0  0  0
   -7.6980   12.0780   67.6290 O   0  0  0  0  0  0  0  0  0  0  0  0
  -11.2550   12.3230   64.2580 C   0  0  0  0  0  0  0  0  0  0  0  0
  -10.1950   10.2480   64.8140 O   0  0  0  0  0  0  0  0  0  0  0  0
  -11.4910   13.7270   64.7490 C   0  0  0  0  0  0  0  0  0  0  0  0
  -11.7180   11.9780   63.1860 O   0  0  0  0  0  0  0  0  0  0  0  0
  -12.5570   14.3110   64.6360 O   0  0  0  0  0  0  0  0  0  0  0  0
  -13.1400   15.4000   73.2890 C   0  0  0  0  0  0  0  0  0  0  0  0
  -12.2120   15.1260   74.3450 O   0  0  0  0  0  0  0  0  0  0  0  0
  -12.4880   16.4890   73.9680 O   0  0  0  0  0  0  0  0  0  0  0  0
  1 40  1  0  0  0  0
  1  2  2  0  0  0  0
  1  6  1  0  0  0  0
  2  3  1  0  0  0  0
  2 17  1  0  0  0  0
  3  4  1  0  0  0  0
  4  5  2  0  0  0  0
  4 16  1  0  0  0  0
  5  6  1  0  0  0  0
  5  7  1  0  0  0  0
  7  8  1  0  0  0  0
  7 14  1  0  0  0  0
  8  9  1  0  0  0  0
  9 10  2  0  0  0  0
  9 11  1  0  0  0  0
 11 12  1  0  0  0  0
 12 13  2  0  0  0  0
 12 14  1  0  0  0  0
 14 15  2  0  0  0  0
 15 16  1  0  0  0  0
 15 52  1  0  0  0  0
 17 18  2  0  0  0  0
 17 23  1  0  0  0  0
 18 19  1  0  0  0  0
 19 20  1  0  0  0  0
 19 21  2  0  0  0  0
 21 22  1  0  0  0  0
 22 23  2  0  0  0  0
 22 24  1  0  0  0  0
 23 25  1  0  0  0  0
 24 28  2  0  0  0  0
 24 34  1  0  0  0  0
 25 26  2  0  0  0  0
 26 27  1  0  0  0  0
 26 28  1  0  0  0  0
 27 29  2  0  0  0  0
 27 30  1  0  0  0  0
 28 33  1  0  0  0  0
 30 31  2  0  0  0  0
 30 32  1  0  0  0  0
 32 33  1  0  0  0  0
 32 35  1  0  0  0  0
 35 36  1  0  0  0  0
 35 37  1  0  0  0  0
 35 38  1  0  0  0  0
 37 38  1  0  0  0  0
 38 39  2  0  0  0  0
 40 41  1  0  0  0  0
 41 42  1  0  0  0  0
 41 49  1  0  0  0  0
 42 43  1  0  0  0  0
 43 44  2  0  0  0  0
 43 45  1  0  0  0  0
 44 46  1  0  0  0  0
 45 47  1  0  0  0  0
 45 48  2  0  0  0  0
 47 49  1  0  0  0  0
 47 50  2  0  0  0  0
 49 51  2  0  0  0  0
 52 53  1  0  0  0  0
 52 54  1  0  0  0  0
 53 54  1  0  0  0  0
M  CHG  2  16   1  19   1
M  END