
 OpenBabel11242000453D

 54 62  0  0  1  0  0  0  0  0999 V2000
  -10.9990   15.8510   67.5230 C   0  0  0  0  0  0  0  0  0  0  0  0
  -10.4240   16.8800   68.2010 C   0  0  0  0  0  0  0  0  0  0  0  0
  -10.6180   16.9930   69.5930 O   0  0  0  0  0  0  0  0  0  0  0  0
  -11.4860   16.1520   70.2950 C   0  0  0  0  0  0  0  0  0  0  0  0
  -12.0030   15.0640   69.7050 C   0  0  0  0  0  0  0  0  0  0  0  0
  -11.7980   14.7970   68.2550 C   0  0  0  0  0  0  0  0  0  0  0  0
  -12.9210   14.1190   70.4220 C   0  0  0  0  0  0  0  0  0  0  0  0
  -12.2290   12.8910   70.6600 N   0  0  0  0  0  0  0  0  0  0  0  0
  -12.7620   11.9380   71.4680 C   0  0  0  0  0  0  0  0  0  0  0  0
  -12.3660   10.7840   71.4240 O   0  0  0  0  0  0  0  0  0  0  0  0
  -13.7130   12.3480   72.3390 N   0  0  0  0  0  0  0  0  0  0  0  0
  -14.2370   13.6680   72.4410 C   0  0  0  0  0  0  0  0  0  0  0  0
  -13.3020   14.6240   71.7740 C   0  0  0  0  0  0  0  0  0  0  0  0
  -12.7760   15.7520   72.3040 C   0  0  0  0  0  0  0  0  0  0  0  0
  -11.8110   16.4730   71.6000 O   0  0  0  0  0  0  0  0  0  0  0  0
  -15.4540   13.7020   71.7420 O   0  0  0  0  0  0  0  0  0  0  0  0
   -9.5310   17.9710   67.5940 C   0  0  0  0  0  0  0  0  0  0  0  0
  -10.0440   18.8180   66.6030 C   0  0  0  0  0  0  0  0  0  0  0  0
   -9.3030   19.7590   66.0100 N   0  0  0  0  0  0  0  0  0  0  0  0
   -9.8740   20.5520   65.0820 F   0  0  0  0  0  0  0  0  0  0  0  0
   -8.0290   19.9270   66.2720 N   0  0  0  0  0  0  0  0  0  0  0  0
   -7.4370   19.1610   67.1830 C   0  0  0  0  0  0  0  0  0  0  0  0
   -8.1420   18.1720   67.9080 C   0  0  0  0  0  0  0  0  0  0  0  0
   -6.0660   19.3530   67.4000 C   0  0  0  0  0  0  0  0  0  0  0  0
   -7.3800   17.4660   68.8740 C   0  0  0  0  0  0  0  0  0  0  0  0
   -6.0000   17.6610   69.0520 C   0  0  0  0  0  0  0  0  0  0  0  0
   -5.2710   16.7950   69.9820 C   0  0  0  0  0  0  0  0  0  0  0  0
   -5.3280   18.6130   68.3220 C   0  0  0  0  0  0  0  0  0  0  0  0
   -5.8670   15.9120   70.5850 O   0  0  0  0  0  0  0  0  0  0  0  0
   -3.7750   17.0160   70.0770 C   0  0  0  0  0  0  0  0  0  0  0  0
   -3.0500   16.1390   70.5210 O   0  0  0  0  0  0  0  0  0  0  0  0
   -3.3170   18.3800   69.5970 C   0  0  0  0  0  0  0  0  0  0  0  0
   -3.9920   18.8600   68.4230 O   0  0  0  0  0  0  0  0  0  0  0  0
   -5.4310   20.2880   66.6770 F   0  0  0  0  0  0  0  0  0  0  0  0
   -3.4300   19.3870   70.6930 C   0  0  0  0  0  0  0  0  0  0  0  0
   -4.4680   19.1510   71.6820 O   0  0  0  0  0  0  0  0  0  0  0  0
   -2.1980   19.8910   71.1910 O   0  0  0  0  0  0  0  0  0  0  0  0
   -2.9970   20.7870   70.5650 C   0  0  0  0  0  0  0  0  0  0  0  0
   -3.5390   21.7710   70.9930 O   0  0  0  0  0  0  0  0  0  0  0  0
  -10.9260   15.7510   66.1400 O   0  0  0  0  0  0  0  0  0  0  0  0
  -10.7260   14.4660   65.5100 C   0  0  0  0  0  0  0  0  0  0  0  0
  -10.3650   13.4640   66.4490 O   0  0  0  0  0  0  0  0  0  0  0  0
   -9.9530   12.2920   65.8460 C   0  0  0  0  0  0  0  0  0  0  0  0
   -8.8340   11.6780   66.2490 C   0  0  0  0  0  0  0  0  0  0  0  0
  -10.7590   11.7110   64.7310 C   0  0  0  0  0  0  0  0  0  0  0  0
   -8.0070   12.2010   67.2160 O   0  0  0  0  0  0  0  0  0  0  0  0
  -11.8880   12.6250   64.2610 C   0  0  0  0  0  0  0  0  0  0  0  0
  -10.4980   10.6540   64.1880 O   0  0  0  0  0  0  0  0  0  0  0  0
  -12.0250   14.0000   64.8860 C   0  0  0  0  0  0  0  0  0  0  0  0
  -12.6110   12.3160   63.3300 O   0  0  0  0  0  0  0  0  0  0  0  0
  -13.0560   14.6570   64.8540 O   0  0  0  0  0  0  0  0  0  0  0  0
  -13.1290   16.2670   73.6390 C   0  0  0  0  0  0  0  0  0  0  0  0
  -12.0830   16.8710   74.3950 N   0  0  0  0  0  0  0  0  0  0  0  0
  -12.4350   15.7320   74.7510 N   0  0  0  0  0  0  0  0  0  0  0  0
  1 40  1  0  0  0  0
  1  2  2  0  0  0  0
  1  6  1  0  0  0  0
  2  3  1  0  0  0  0
  2 17  1  0  0  0  0
  3  4  1  0  0  0  0
  4  5  2  0  0  0  0
  4 15  1  0  0  0  0
  5  6  1  0  0  0  0
  5  7  1  0  0  0  0
  7  8  1  0  0  0  0
  7 13  1  0  0  0  0
  8  9  1  0  0  0  0
  9 10  2  0  0  0  0
  9 11  1  0  0  0  0
 11 12  1  0  0  0  0
 12 13  1  0  0  0  0
 12 16  1  0  0  0  0
 13 14  2  0  0  0  0
 14 15  1  0  0  0  0
 14 52  1  0  0  0  0
 17 18  2  0  0  0  0
 17 23  1  0  0  0  0
 18 19  1  0  0  0  0
 19 20  1  0  0  0  0
 19 21  2  0  0  0  0
 21 22  1  0  0  0  0
 22 23  2  0  0  0  0
 22 24  1  0  0  0  0
 23 25  1  0  0  0  0
 24 28  2  0  0  0  0
 24 34  1  0  0  0  0
 25 26  2  0  0  0  0
 26 27  1  0  0  0  0
 26 28  1  0  0  0  0
 27 29  2  0  0  0  0
 27 30  1  0  0  0  0
 28 33  1  0  0  0  0
 30 31  2  0  0  0  0
 30 32  1  0  0  0  0
 32 33  1  0  0  0  0
 32 35  1  0  0  0  0
 35 36  1  0  0  0  0
 35 37  1  0  0  0  0
 35 38  1  0  0  0  0
 37 38  1  0  0  0  0
 38 39  2  0  0  0  0
 40 41  1  0  0  0  0
 41 42  1  0  0  0  0
 41 49  1  0  0  0  0
 42 43  1  0  0  0  0
 43 44  2  0  0  0  0
 43 45  1  0  0  0  0
 44 46  1  0  0  0  0
 45 47  1  0  0  0  0
 45 48  2  0  0  0  0
 47 49  1  0  0  0  0
 47 50  2  0  0  0  0
 49 51  2  0  0  0  0
 52 53  1  0  0  0  0
 52 54  1  0  0  0  0
 53 54  2  0  0  0  0
M  CHG  2  15   1  19   1
M  END