
 OpenBabel11252003023D

 54 63  0  0  1  0  0  0  0  0999 V2000
  -11.0720   15.6210   67.0860 C   0  0  0  0  0  0  0  0  0  0  0  0
  -10.5920   16.6910   67.7600 C   0  0  0  0  0  0  0  0  0  0  0  0
  -10.8170   16.8460   69.1420 O   0  0  0  0  0  0  0  0  0  0  0  0
  -11.4750   15.8540   69.8740 C   0  0  0  0  0  0  0  0  0  0  0  0
  -11.9230   14.7320   69.2870 C   0  0  0  0  0  0  0  0  0  0  0  0
  -11.8120   14.5140   67.8090 C   0  0  0  0  0  0  0  0  0  0  0  0
  -12.5950   13.6310   70.0660 C   0  0  0  0  0  0  0  0  0  0  0  0
  -11.7960   12.4640   69.9460 O   0  0  0  0  0  0  0  0  0  0  0  0
  -12.2680   11.3570   70.5890 C   0  0  0  0  0  0  0  0  0  0  0  0
  -11.8380   10.2420   70.3560 O   0  0  0  0  0  0  0  0  0  0  0  0
  -13.2750   11.6010   71.4650 O   0  0  0  0  0  0  0  0  0  0  0  0
  -13.1850   12.7670   72.2710 C   0  0  0  0  0  0  0  0  0  0  0  0
  -12.6380   13.9290   71.5160 C   0  0  0  0  0  0  0  0  0  0  0  0
  -12.1840   15.0850   72.0450 C   0  0  0  0  0  0  0  0  0  0  0  0
  -11.6380   16.0620   71.2250 O   0  0  0  0  0  0  0  0  0  0  0  0
  -14.4850   13.1740   72.6440 O   0  0  0  0  0  0  0  0  0  0  0  0
   -9.6880   17.7530   67.2030 C   0  0  0  0  0  0  0  0  0  0  0  0
  -10.3310   18.7750   66.4960 C   0  0  0  0  0  0  0  0  0  0  0  0
   -9.6470   19.7590   65.9060 N   0  0  0  0  0  0  0  0  0  0  0  0
  -10.3150   20.7080   65.2230 F   0  0  0  0  0  0  0  0  0  0  0  0
   -8.3390   19.8320   65.9520 N   0  0  0  0  0  0  0  0  0  0  0  0
   -7.6510   18.9320   66.6540 C   0  0  0  0  0  0  0  0  0  0  0  0
   -8.2730   17.8480   67.3140 C   0  0  0  0  0  0  0  0  0  0  0  0
   -6.2720   19.0980   66.7390 C   0  0  0  0  0  0  0  0  0  0  0  0
   -7.4250   16.9750   68.0440 C   0  0  0  0  0  0  0  0  0  0  0  0
   -6.0530   17.2430   68.2110 C   0  0  0  0  0  0  0  0  0  0  0  0
   -5.4630   18.2850   67.5260 C   0  0  0  0  0  0  0  0  0  0  0  0
   -5.2630   16.4990   69.2000 C   0  0  0  0  0  0  0  0  0  0  0  0
   -4.1380   18.6030   67.5890 O   0  0  0  0  0  0  0  0  0  0  0  0
   -3.2790   17.7640   68.3980 C   0  0  0  0  0  0  0  0  0  0  0  0
   -3.8950   17.0580   69.5320 C   0  0  0  0  0  0  0  0  0  0  0  0
   -2.2680   17.0600   67.7260 O   0  0  0  0  0  0  0  0  0  0  0  0
   -1.8460   18.1960   68.5530 C   0  0  0  0  0  0  0  0  0  0  0  0
   -3.3950   16.9650   70.6380 O   0  0  0  0  0  0  0  0  0  0  0  0
   -1.7290   19.5210   67.8810 O   0  0  0  0  0  0  0  0  0  0  0  0
   -0.6820   18.7470   67.9340 C   0  0  0  0  0  0  0  0  0  0  0  0
    0.4690   18.9350   68.2990 O   0  0  0  0  0  0  0  0  0  0  0  0
   -5.7380   15.5310   69.7770 O   0  0  0  0  0  0  0  0  0  0  0  0
   -5.7070   20.1150   66.0670 F   0  0  0  0  0  0  0  0  0  0  0  0
  -10.8230   15.4330   65.7330 O   0  0  0  0  0  0  0  0  0  0  0  0
  -10.4900   14.0800   65.3370 C   0  0  0  0  0  0  0  0  0  0  0  0
  -10.0910   13.3010   66.4650 O   0  0  0  0  0  0  0  0  0  0  0  0
   -9.6480   12.0270   66.1490 C   0  0  0  0  0  0  0  0  0  0  0  0
   -8.6840   11.4490   66.8750 C   0  0  0  0  0  0  0  0  0  0  0  0
  -10.2290   11.2650   65.0020 C   0  0  0  0  0  0  0  0  0  0  0  0
   -8.0670   12.0720   67.9330 O   0  0  0  0  0  0  0  0  0  0  0  0
  -11.3540   11.9910   64.2760 C   0  0  0  0  0  0  0  0  0  0  0  0
   -9.7890   10.1960   64.6140 O   0  0  0  0  0  0  0  0  0  0  0  0
  -11.6860   13.4030   64.6980 C   0  0  0  0  0  0  0  0  0  0  0  0
  -11.8990   11.5050   63.3000 O   0  0  0  0  0  0  0  0  0  0  0  0
  -12.7830   13.9150   64.5300 O   0  0  0  0  0  0  0  0  0  0  0  0
  -12.1850   15.3850   73.4870 C   0  0  0  0  0  0  0  0  0  0  0  0
  -13.2780   16.1610   73.9720 N   0  0  0  0  0  0  0  0  0  0  0  0
  -12.1870   16.7480   73.8670 N   0  0  0  0  0  0  0  0  0  0  0  0
  1 40  1  0  0  0  0
  1  2  2  0  0  0  0
  1  6  1  0  0  0  0
  2  3  1  0  0  0  0
  2 17  1  0  0  0  0
  3  4  1  0  0  0  0
  4  5  2  0  0  0  0
  4 15  1  0  0  0  0
  5  6  1  0  0  0  0
  5  7  1  0  0  0  0
  7  8  1  0  0  0  0
  7 13  1  0  0  0  0
  8  9  1  0  0  0  0
  9 10  2  0  0  0  0
  9 11  1  0  0  0  0
 11 12  1  0  0  0  0
 12 13  1  0  0  0  0
 12 16  1  0  0  0  0
 13 14  2  0  0  0  0
 14 15  1  0  0  0  0
 14 52  1  0  0  0  0
 17 18  2  0  0  0  0
 17 23  1  0  0  0  0
 18 19  1  0  0  0  0
 19 20  1  0  0  0  0
 19 21  2  0  0  0  0
 21 22  1  0  0  0  0
 22 23  2  0  0  0  0
 22 24  1  0  0  0  0
 23 25  1  0  0  0  0
 24 27  2  0  0  0  0
 24 39  1  0  0  0  0
 25 26  2  0  0  0  0
 26 27  1  0  0  0  0
 26 28  1  0  0  0  0
 27 29  1  0  0  0  0
 28 31  1  0  0  0  0
 28 38  2  0  0  0  0
 29 30  1  0  0  0  0
 30 31  1  0  0  0  0
 30 32  1  0  0  0  0
 30 33  1  0  0  0  0
 31 34  2  0  0  0  0
 32 33  1  0  0  0  0
 33 35  1  0  0  0  0
 33 36  1  0  0  0  0
 35 36  1  0  0  0  0
 36 37  2  0  0  0  0
 40 41  1  0  0  0  0
 41 42  1  0  0  0  0
 41 49  1  0  0  0  0
 42 43  1  0  0  0  0
 43 44  2  0  0  0  0
 43 45  1  0  0  0  0
 44 46  1  0  0  0  0
 45 47  1  0  0  0  0
 45 48  2  0  0  0  0
 47 49  1  0  0  0  0
 47 50  2  0  0  0  0
 49 51  2  0  0  0  0
 52 53  1  0  0  0  0
 52 54  1  0  0  0  0
 53 54  2  0  0  0  0
M  CHG  2  15   1  19   1
M  END