
 OpenBabel11252023503D

 54 62  0  0  1  0  0  0  0  0999 V2000
  -10.8990   15.7330   67.0320 C   0  0  0  0  0  0  0  0  0  0  0  0
  -10.5930   16.8160   67.7720 C   0  0  0  0  0  0  0  0  0  0  0  0
  -10.8880   16.9160   69.1380 O   0  0  0  0  0  0  0  0  0  0  0  0
  -11.5390   15.8420   69.7900 C   0  0  0  0  0  0  0  0  0  0  0  0
  -11.8460   14.7120   69.1160 C   0  0  0  0  0  0  0  0  0  0  0  0
  -11.5560   14.5250   67.6510 C   0  0  0  0  0  0  0  0  0  0  0  0
  -12.5500   13.5470   69.7820 C   0  0  0  0  0  0  0  0  0  0  0  0
  -11.7050   12.4140   69.6950 O   0  0  0  0  0  0  0  0  0  0  0  0
  -12.0940   11.3230   70.3970 C   0  0  0  0  0  0  0  0  0  0  0  0
  -11.5410   10.1960   70.1660 N   0  0  0  0  0  0  0  0  0  0  0  0
  -13.0530   11.4470   71.3390 O   0  0  0  0  0  0  0  0  0  0  0  0
  -13.3780   12.6430   71.8570 C   0  0  0  0  0  0  0  0  0  0  0  0
  -14.1610   12.8030   72.7800 O   0  0  0  0  0  0  0  0  0  0  0  0
  -12.7750   13.8040   71.2090 C   0  0  0  0  0  0  0  0  0  0  0  0
  -12.4640   14.9510   71.8430 C   0  0  0  0  0  0  0  0  0  0  0  0
  -11.8570   15.9830   71.1330 O   0  0  0  0  0  0  0  0  0  0  0  0
   -9.8900   17.9710   67.1450 C   0  0  0  0  0  0  0  0  0  0  0  0
  -10.5820   18.7610   66.2170 C   0  0  0  0  0  0  0  0  0  0  0  0
   -9.9970   19.8410   65.6910 N   0  0  0  0  0  0  0  0  0  0  0  0
  -10.6690   20.5860   64.7880 F   0  0  0  0  0  0  0  0  0  0  0  0
   -8.7730   20.2010   66.0170 N   0  0  0  0  0  0  0  0  0  0  0  0
   -8.0920   19.4770   66.9250 C   0  0  0  0  0  0  0  0  0  0  0  0
   -8.6210   18.3390   67.5210 N   0  0  0  0  0  0  0  0  0  0  0  0
   -6.7940   19.8690   67.2770 C   0  0  0  0  0  0  0  0  0  0  0  0
   -7.8730   17.6520   68.4340 C   0  0  0  0  0  0  0  0  0  0  0  0
   -6.5820   18.0510   68.7700 C   0  0  0  0  0  0  0  0  0  0  0  0
   -5.7980   17.2440   69.6970 C   0  0  0  0  0  0  0  0  0  0  0  0
   -6.0310   19.1770   68.2080 C   0  0  0  0  0  0  0  0  0  0  0  0
   -6.2790   16.1990   70.0990 O   0  0  0  0  0  0  0  0  0  0  0  0
   -4.4060   17.7410   70.0350 C   0  0  0  0  0  0  0  0  0  0  0  0
   -3.5690   16.9710   70.4680 O   0  0  0  0  0  0  0  0  0  0  0  0
   -4.2010   19.2170   69.7600 C   0  0  0  0  0  0  0  0  0  0  0  0
   -4.7780   19.6300   68.4970 O   0  0  0  0  0  0  0  0  0  0  0  0
   -6.2730   20.9550   66.6880 F   0  0  0  0  0  0  0  0  0  0  0  0
   -4.7640   20.0490   70.8650 C   0  0  0  0  0  0  0  0  0  0  0  0
   -6.1640   20.4380   70.7400 O   0  0  0  0  0  0  0  0  0  0  0  0
   -4.3190   19.7440   72.1720 O   0  0  0  0  0  0  0  0  0  0  0  0
   -3.9410   20.9480   71.6900 C   0  0  0  0  0  0  0  0  0  0  0  0
   -4.2440   22.0680   72.0340 O   0  0  0  0  0  0  0  0  0  0  0  0
  -10.5510   15.7010   65.6910 O   0  0  0  0  0  0  0  0  0  0  0  0
  -10.3880   14.3990   65.0700 C   0  0  0  0  0  0  0  0  0  0  0  0
  -10.3140   13.3840   66.0660 O   0  0  0  0  0  0  0  0  0  0  0  0
  -10.0390   12.1530   65.4900 C   0  0  0  0  0  0  0  0  0  0  0  0
   -9.3090   11.2440   66.1440 C   0  0  0  0  0  0  0  0  0  0  0  0
  -10.5780   11.8340   64.1260 C   0  0  0  0  0  0  0  0  0  0  0  0
   -8.7720   11.4880   67.3860 O   0  0  0  0  0  0  0  0  0  0  0  0
  -11.7260   12.7100   63.6640 C   0  0  0  0  0  0  0  0  0  0  0  0
  -10.1050   10.9300   63.4500 O   0  0  0  0  0  0  0  0  0  0  0  0
  -11.6510   14.1060   64.2660 C   0  0  0  0  0  0  0  0  0  0  0  0
  -12.9200   12.1360   63.9910 F   0  0  0  0  0  0  0  0  0  0  0  0
  -12.5610   14.9390   64.1940 O   0  0  0  0  0  0  0  0  0  0  0  0
  -12.6480   15.2020   73.2970 C   0  0  0  0  0  0  0  0  0  0  0  0
  -12.1920   16.4270   73.8830 O   0  0  0  0  0  0  0  0  0  0  0  0
  -13.6030   16.1890   73.7310 O   0  0  0  0  0  0  0  0  0  0  0  0
  1 40  1  0  0  0  0
  1  2  2  0  0  0  0
  1  6  1  0  0  0  0
  2  3  1  0  0  0  0
  2 17  1  0  0  0  0
  3  4  1  0  0  0  0
  4  5  2  0  0  0  0
  4 16  1  0  0  0  0
  5  6  1  0  0  0  0
  5  7  1  0  0  0  0
  7  8  1  0  0  0  0
  7 14  1  0  0  0  0
  8  9  1  0  0  0  0
  9 10  2  0  0  0  0
  9 11  1  0  0  0  0
 11 12  1  0  0  0  0
 12 13  2  0  0  0  0
 12 14  1  0  0  0  0
 14 15  2  0  0  0  0
 15 16  1  0  0  0  0
 15 52  1  0  0  0  0
 17 18  2  0  0  0  0
 17 23  1  0  0  0  0
 18 19  1  0  0  0  0
 19 20  1  0  0  0  0
 19 21  2  0  0  0  0
 21 22  1  0  0  0  0
 22 23  2  0  0  0  0
 22 24  1  0  0  0  0
 23 25  1  0  0  0  0
 24 28  2  0  0  0  0
 24 34  1  0  0  0  0
 25 26  2  0  0  0  0
 26 27  1  0  0  0  0
 26 28  1  0  0  0  0
 27 29  2  0  0  0  0
 27 30  1  0  0  0  0
 28 33  1  0  0  0  0
 30 31  2  0  0  0  0
 30 32  1  0  0  0  0
 32 33  1  0  0  0  0
 32 35  1  0  0  0  0
 35 36  1  0  0  0  0
 35 37  1  0  0  0  0
 35 38  1  0  0  0  0
 37 38  1  0  0  0  0
 38 39  2  0  0  0  0
 40 41  1  0  0  0  0
 41 42  1  0  0  0  0
 41 49  1  0  0  0  0
 42 43  1  0  0  0  0
 43 44  2  0  0  0  0
 43 45  1  0  0  0  0
 44 46  1  0  0  0  0
 45 47  1  0  0  0  0
 45 48  2  0  0  0  0
 47 49  1  0  0  0  0
 47 50  1  0  0  0  0
 49 51  2  0  0  0  0
 52 53  1  0  0  0  0
 52 54  1  0  0  0  0
 53 54  1  0  0  0  0
M  CHG  3  16   1  19   1  23   1
M  END