
 OpenBabel11222014213D

 54 62  0  0  1  0  0  0  0  0999 V2000
  -11.0170   15.7960   67.0040 C   0  0  0  0  0  0  0  0  0  0  0  0
  -10.6450   16.8860   67.7020 C   0  0  0  0  0  0  0  0  0  0  0  0
  -10.8520   17.0330   69.0730 O   0  0  0  0  0  0  0  0  0  0  0  0
  -11.4010   15.9750   69.8030 C   0  0  0  0  0  0  0  0  0  0  0  0
  -11.8010   14.8440   69.1940 C   0  0  0  0  0  0  0  0  0  0  0  0
  -11.6960   14.6490   67.7090 C   0  0  0  0  0  0  0  0  0  0  0  0
  -12.4370   13.7140   69.9550 C   0  0  0  0  0  0  0  0  0  0  0  0
  -11.6530   12.5480   69.7970 O   0  0  0  0  0  0  0  0  0  0  0  0
  -12.1940   11.4230   70.3470 C   0  0  0  0  0  0  0  0  0  0  0  0
  -11.8570   10.3040   70.0000 O   0  0  0  0  0  0  0  0  0  0  0  0
  -13.1600   11.6560   71.2720 O   0  0  0  0  0  0  0  0  0  0  0  0
  -13.0340   12.7900   72.1220 C   0  0  0  0  0  0  0  0  0  0  0  0
  -12.4710   13.9720   71.4120 C   0  0  0  0  0  0  0  0  0  0  0  0
  -12.0440   15.1280   71.9660 C   0  0  0  0  0  0  0  0  0  0  0  0
  -11.5290   16.1380   71.1640 O   0  0  0  0  0  0  0  0  0  0  0  0
  -14.3230   13.1970   72.5320 O   0  0  0  0  0  0  0  0  0  0  0  0
   -9.9400   18.0130   67.0650 C   0  0  0  0  0  0  0  0  0  0  0  0
  -10.6520   18.8620   66.2230 C   0  0  0  0  0  0  0  0  0  0  0  0
  -10.0540   19.9160   65.6600 N   0  0  0  0  0  0  0  0  0  0  0  0
  -10.7730   20.7270   64.8610 F   0  0  0  0  0  0  0  0  0  0  0  0
   -8.7850   20.2110   65.8780 N   0  0  0  0  0  0  0  0  0  0  0  0
   -8.0460   19.4250   66.6730 C   0  0  0  0  0  0  0  0  0  0  0  0
   -8.5730   18.2720   67.2780 C   0  0  0  0  0  0  0  0  0  0  0  0
   -6.7270   19.7700   66.9510 C   0  0  0  0  0  0  0  0  0  0  0  0
   -7.7270   17.4590   68.0770 C   0  0  0  0  0  0  0  0  0  0  0  0
   -6.4040   17.8290   68.3540 C   0  0  0  0  0  0  0  0  0  0  0  0
   -5.5950   17.0410   69.3520 C   0  0  0  0  0  0  0  0  0  0  0  0
   -5.9280   19.0260   67.8250 C   0  0  0  0  0  0  0  0  0  0  0  0
   -6.2070   17.1000   70.5720 F   0  0  0  0  0  0  0  0  0  0  0  0
   -4.1830   17.5940   69.4670 C   0  0  0  0  0  0  0  0  0  0  0  0
   -3.5550   17.0910   70.5560 F   0  0  0  0  0  0  0  0  0  0  0  0
   -4.2110   19.1180   69.4780 C   0  0  0  0  0  0  0  0  0  0  0  0
   -4.7390   19.5890   68.2110 O   0  0  0  0  0  0  0  0  0  0  0  0
   -6.2340   20.9050   66.4270 F   0  0  0  0  0  0  0  0  0  0  0  0
   -4.8890   19.7380   70.6840 C   0  0  0  0  0  0  0  0  0  0  0  0
   -6.2080   20.2720   70.4510 O   0  0  0  0  0  0  0  0  0  0  0  0
   -4.7940   18.9450   71.8930 O   0  0  0  0  0  0  0  0  0  0  0  0
   -4.2440   20.1630   71.9140 C   0  0  0  0  0  0  0  0  0  0  0  0
   -3.1450   20.5640   72.2320 O   0  0  0  0  0  0  0  0  0  0  0  0
  -10.6690   15.6680   65.6620 O   0  0  0  0  0  0  0  0  0  0  0  0
  -10.4710   14.3390   65.1160 C   0  0  0  0  0  0  0  0  0  0  0  0
  -10.0860   13.4220   66.1220 O   0  0  0  0  0  0  0  0  0  0  0  0
  -10.0190   12.0900   65.7760 C   0  0  0  0  0  0  0  0  0  0  0  0
   -9.3820   11.2240   66.5740 C   0  0  0  0  0  0  0  0  0  0  0  0
  -10.7230   11.5510   64.5810 C   0  0  0  0  0  0  0  0  0  0  0  0
   -8.7800   11.6140   67.7460 O   0  0  0  0  0  0  0  0  0  0  0  0
  -11.7880   12.4760   64.0320 C   0  0  0  0  0  0  0  0  0  0  0  0
  -10.4970   10.4650   64.0810 O   0  0  0  0  0  0  0  0  0  0  0  0
  -11.6990   13.9560   64.3040 C   0  0  0  0  0  0  0  0  0  0  0  0
  -12.7610   12.0360   63.4420 O   0  0  0  0  0  0  0  0  0  0  0  0
  -12.5550   14.7490   63.9180 O   0  0  0  0  0  0  0  0  0  0  0  0
  -12.1330   15.4450   73.4140 C   0  0  0  0  0  0  0  0  0  0  0  0
  -12.0150   16.8070   73.8660 O   0  0  0  0  0  0  0  0  0  0  0  0
  -13.2820   16.1290   73.9330 O   0  0  0  0  0  0  0  0  0  0  0  0
  1 40  1  0  0  0  0
  1  2  2  0  0  0  0
  1  6  1  0  0  0  0
  2  3  1  0  0  0  0
  2 17  1  0  0  0  0
  3  4  1  0  0  0  0
  4  5  2  0  0  0  0
  4 15  1  0  0  0  0
  5  6  1  0  0  0  0
  5  7  1  0  0  0  0
  7  8  1  0  0  0  0
  7 13  1  0  0  0  0
  8  9  1  0  0  0  0
  9 10  2  0  0  0  0
  9 11  1  0  0  0  0
 11 12  1  0  0  0  0
 12 13  1  0  0  0  0
 12 16  1  0  0  0  0
 13 14  2  0  0  0  0
 14 15  1  0  0  0  0
 14 52  1  0  0  0  0
 17 18  2  0  0  0  0
 17 23  1  0  0  0  0
 18 19  1  0  0  0  0
 19 20  1  0  0  0  0
 19 21  2  0  0  0  0
 21 22  1  0  0  0  0
 22 23  2  0  0  0  0
 22 24  1  0  0  0  0
 23 25  1  0  0  0  0
 24 28  2  0  0  0  0
 24 34  1  0  0  0  0
 25 26  2  0  0  0  0
 26 27  1  0  0  0  0
 26 28  1  0  0  0  0
 27 29  1  0  0  0  0
 27 30  1  0  0  0  0
 28 33  1  0  0  0  0
 30 31  1  0  0  0  0
 30 32  1  0  0  0  0
 32 33  1  0  0  0  0
 32 35  1  0  0  0  0
 35 36  1  0  0  0  0
 35 37  1  0  0  0  0
 35 38  1  0  0  0  0
 37 38  1  0  0  0  0
 38 39  2  0  0  0  0
 40 41  1  0  0  0  0
 41 42  1  0  0  0  0
 41 49  1  0  0  0  0
 42 43  1  0  0  0  0
 43 44  2  0  0  0  0
 43 45  1  0  0  0  0
 44 46  1  0  0  0  0
 45 47  1  0  0  0  0
 45 48  2  0  0  0  0
 47 49  1  0  0  0  0
 47 50  2  0  0  0  0
 49 51  2  0  0  0  0
 52 53  1  0  0  0  0
 52 54  1  0  0  0  0
 53 54  1  0  0  0  0
M  CHG  2  15   1  19   1
M  END