
 OpenBabel09252009403D

 51 59  0  0  1  0  0  0  0  0999 V2000
  -10.3290   15.8540   67.7430 C   0  0  0  0  0  0  0  0  0  0  0  0
  -10.3260   17.0150   68.4340 C   0  0  0  0  0  0  0  0  0  0  0  0
  -10.8480   17.1460   69.7190 O   0  0  0  0  0  0  0  0  0  0  0  0
  -11.4170   16.0400   70.3330 C   0  0  0  0  0  0  0  0  0  0  0  0
  -11.4590   14.8450   69.7230 C   0  0  0  0  0  0  0  0  0  0  0  0
  -10.9080   14.6060   68.3600 C   0  0  0  0  0  0  0  0  0  0  0  0
  -12.1310   13.7200   70.4260 C   0  0  0  0  0  0  0  0  0  0  0  0
  -12.2190   12.5600   69.8630 N   0  0  0  0  0  0  0  0  0  0  0  0
  -12.8610   11.5360   70.5310 C   0  0  0  0  0  0  0  0  0  0  0  0
  -12.9210   10.4440   69.9820 O   0  0  0  0  0  0  0  0  0  0  0  0
  -13.4360   11.6840   71.7780 N   0  0  0  0  0  0  0  0  0  0  0  0
  -13.3560   12.8290   72.3640 C   0  0  0  0  0  0  0  0  0  0  0  0
  -12.6970   13.9900   71.7640 C   0  0  0  0  0  0  0  0  0  0  0  0
  -12.5930   15.2210   72.3050 C   0  0  0  0  0  0  0  0  0  0  0  0
  -11.9580   16.2230   71.5810 N   0  0  0  0  0  0  0  0  0  0  0  0
   -9.7800   18.2680   67.8820 C   0  0  0  0  0  0  0  0  0  0  0  0
  -10.6600   18.9890   67.1550 N   0  0  0  0  0  0  0  0  0  0  0  0
  -10.2000   20.1430   66.6650 C   0  0  0  0  0  0  0  0  0  0  0  0
   -8.9650   20.6360   66.8310 N   0  0  0  0  0  0  0  0  0  0  0  0
   -8.1080   19.9080   67.5520 C   0  0  0  0  0  0  0  0  0  0  0  0
   -8.4550   18.6740   68.1180 C   0  0  0  0  0  0  0  0  0  0  0  0
   -6.8220   20.4020   67.7560 C   0  0  0  0  0  0  0  0  0  0  0  0
   -7.4870   17.9500   68.8580 C   0  0  0  0  0  0  0  0  0  0  0  0
   -6.2070   18.4760   69.0470 C   0  0  0  0  0  0  0  0  0  0  0  0
   -5.8760   19.7120   68.5160 C   0  0  0  0  0  0  0  0  0  0  0  0
   -5.2030   17.7220   69.8050 C   0  0  0  0  0  0  0  0  0  0  0  0
   -4.6640   20.3240   68.6720 O   0  0  0  0  0  0  0  0  0  0  0  0
   -3.8310   19.8470   69.7380 C   0  0  0  0  0  0  0  0  0  0  0  0
   -3.8390   18.3530   69.9340 C   0  0  0  0  0  0  0  0  0  0  0  0
   -2.8600   17.6810   70.2260 O   0  0  0  0  0  0  0  0  0  0  0  0
   -5.4560   16.6390   70.3090 O   0  0  0  0  0  0  0  0  0  0  0  0
   -4.1510   20.5680   71.0190 C   0  0  0  0  0  0  0  0  0  0  0  0
   -5.4970   21.0670   71.1760 O   0  0  0  0  0  0  0  0  0  0  0  0
   -3.6010   20.0110   72.2130 O   0  0  0  0  0  0  0  0  0  0  0  0
   -3.0890   21.1800   71.8000 C   0  0  0  0  0  0  0  0  0  0  0  0
   -1.9410   21.4740   71.5280 O   0  0  0  0  0  0  0  0  0  0  0  0
   -9.7430   15.7700   66.4870 O   0  0  0  0  0  0  0  0  0  0  0  0
   -9.4560   14.4550   65.9770 C   0  0  0  0  0  0  0  0  0  0  0  0
   -9.0930   13.5710   67.0340 O   0  0  0  0  0  0  0  0  0  0  0  0
   -8.9980   12.2430   66.6580 C   0  0  0  0  0  0  0  0  0  0  0  0
   -7.9920   11.4780   67.0990 C   0  0  0  0  0  0  0  0  0  0  0  0
  -10.0460   11.6170   65.8100 C   0  0  0  0  0  0  0  0  0  0  0  0
   -6.9810   11.9200   67.9140 O   0  0  0  0  0  0  0  0  0  0  0  0
  -11.0140   12.6000   65.2150 C   0  0  0  0  0  0  0  0  0  0  0  0
  -10.1840   10.3550   65.5620 N   0  0  0  0  0  0  0  0  0  0  0  0
  -10.7190   14.0650   65.2210 C   0  0  0  0  0  0  0  0  0  0  0  0
  -12.1080   12.1540   64.6680 N   0  0  0  0  0  0  0  0  0  0  0  0
  -11.4900   14.8640   64.5420 N   0  0  0  0  0  0  0  0  0  0  0  0
  -13.1200   15.6080   73.6360 C   0  0  0  0  0  0  0  0  0  0  0  0
  -12.3210   15.4880   74.8230 O   0  0  0  0  0  0  0  0  0  0  0  0
  -12.6730   16.7920   74.3210 O   0  0  0  0  0  0  0  0  0  0  0  0
  1 37  1  0  0  0  0
  1  2  2  0  0  0  0
  1  6  1  0  0  0  0
  2  3  1  0  0  0  0
  2 16  1  0  0  0  0
  3  4  1  0  0  0  0
  4  5  2  0  0  0  0
  4 15  1  0  0  0  0
  5  6  1  0  0  0  0
  5  7  1  0  0  0  0
  7  8  2  0  0  0  0
  7 13  1  0  0  0  0
  8  9  1  0  0  0  0
  9 10  2  0  0  0  0
  9 11  1  0  0  0  0
 11 12  2  0  0  0  0
 12 13  1  0  0  0  0
 13 14  2  0  0  0  0
 14 15  1  0  0  0  0
 14 49  1  0  0  0  0
 16 17  2  0  0  0  0
 16 21  1  0  0  0  0
 17 18  1  0  0  0  0
 18 19  2  0  0  0  0
 19 20  1  0  0  0  0
 20 21  2  0  0  0  0
 20 22  1  0  0  0  0
 21 23  1  0  0  0  0
 22 25  2  0  0  0  0
 23 24  2  0  0  0  0
 24 25  1  0  0  0  0
 24 26  1  0  0  0  0
 25 27  1  0  0  0  0
 26 29  1  0  0  0  0
 26 31  2  0  0  0  0
 27 28  1  0  0  0  0
 28 29  1  0  0  0  0
 28 32  1  0  0  0  0
 29 30  2  0  0  0  0
 32 33  1  0  0  0  0
 32 34  1  0  0  0  0
 32 35  1  0  0  0  0
 34 35  1  0  0  0  0
 35 36  2  0  0  0  0
 37 38  1  0  0  0  0
 38 39  1  0  0  0  0
 38 46  1  0  0  0  0
 39 40  1  0  0  0  0
 40 41  2  0  0  0  0
 40 42  1  0  0  0  0
 41 43  1  0  0  0  0
 42 44  1  0  0  0  0
 42 45  2  0  0  0  0
 44 46  1  0  0  0  0
 44 47  2  0  0  0  0
 46 48  2  0  0  0  0
 49 50  1  0  0  0  0
 49 51  1  0  0  0  0
 50 51  1  0  0  0  0
M  END
