
 OpenBabel11232023533D

 54 62  0  0  1  0  0  0  0  0999 V2000
   -9.3200   15.1910   67.3790 C   0  0  0  0  0  0  0  0  0  0  0  0
   -9.4840   16.3180   68.1170 C   0  0  0  0  0  0  0  0  0  0  0  0
  -10.0000   16.2140   69.4400 O   0  0  0  0  0  0  0  0  0  0  0  0
  -10.7730   15.0840   69.7720 C   0  0  0  0  0  0  0  0  0  0  0  0
  -10.5560   13.9170   69.1160 C   0  0  0  0  0  0  0  0  0  0  0  0
   -9.4490   13.8590   68.0910 C   0  0  0  0  0  0  0  0  0  0  0  0
  -11.4630   12.7220   69.2670 C   0  0  0  0  0  0  0  0  0  0  0  0
  -10.7900   11.4880   69.3720 O   0  0  0  0  0  0  0  0  0  0  0  0
  -11.6270   10.3950   69.3660 C   0  0  0  0  0  0  0  0  0  0  0  0
  -11.2670    9.2740   69.0840 O   0  0  0  0  0  0  0  0  0  0  0  0
  -12.8610   10.6650   69.8930 O   0  0  0  0  0  0  0  0  0  0  0  0
  -12.6730   11.4720   71.0100 C   0  0  0  0  0  0  0  0  0  0  0  0
  -12.2010   12.8340   70.5390 C   0  0  0  0  0  0  0  0  0  0  0  0
  -12.3810   14.0120   71.1690 C   0  0  0  0  0  0  0  0  0  0  0  0
  -11.7560   15.1970   70.7690 O   0  0  0  0  0  0  0  0  0  0  0  0
  -13.2320   13.8300   72.3800 C   0  0  0  0  0  0  0  0  0  0  0  0
  -13.3240   14.6280   73.2850 O   0  0  0  0  0  0  0  0  0  0  0  0
  -13.7820   12.6660   72.6480 O   0  0  0  0  0  0  0  0  0  0  0  0
  -13.8350   11.8020   71.7290 O   0  0  0  0  0  0  0  0  0  0  0  0
   -9.1180   17.7150   67.6580 C   0  0  0  0  0  0  0  0  0  0  0  0
   -9.9920   18.4210   66.8240 C   0  0  0  0  0  0  0  0  0  0  0  0
   -9.6670   19.6170   66.3150 N   0  0  0  0  0  0  0  0  0  0  0  0
  -10.5560   20.2610   65.5310 F   0  0  0  0  0  0  0  0  0  0  0  0
   -8.4920   20.1800   66.5150 N   0  0  0  0  0  0  0  0  0  0  0  0
   -7.5880   19.5740   67.2830 C   0  0  0  0  0  0  0  0  0  0  0  0
   -7.8710   18.3420   67.9130 C   0  0  0  0  0  0  0  0  0  0  0  0
   -6.3260   20.1620   67.4670 C   0  0  0  0  0  0  0  0  0  0  0  0
   -6.8810   17.8090   68.7560 C   0  0  0  0  0  0  0  0  0  0  0  0
   -5.6230   18.4020   68.8920 C   0  0  0  0  0  0  0  0  0  0  0  0
   -4.6220   17.7260   69.7080 C   0  0  0  0  0  0  0  0  0  0  0  0
   -5.3310   19.5900   68.2640 C   0  0  0  0  0  0  0  0  0  0  0  0
   -4.8450   16.5750   70.0830 O   0  0  0  0  0  0  0  0  0  0  0  0
   -3.3520   18.4970   70.0010 C   0  0  0  0  0  0  0  0  0  0  0  0
   -2.4240   17.9040   70.5280 O   0  0  0  0  0  0  0  0  0  0  0  0
   -3.3960   19.9750   69.6310 C   0  0  0  0  0  0  0  0  0  0  0  0
   -4.1460   20.2480   68.4240 O   0  0  0  0  0  0  0  0  0  0  0  0
   -6.0730   21.3320   66.8600 F   0  0  0  0  0  0  0  0  0  0  0  0
   -3.8340   20.8320   70.7990 C   0  0  0  0  0  0  0  0  0  0  0  0
   -4.9470   21.7110   70.5650 O   0  0  0  0  0  0  0  0  0  0  0  0
   -3.7720   20.2180   72.0980 O   0  0  0  0  0  0  0  0  0  0  0  0
   -2.9470   21.2430   71.8770 C   0  0  0  0  0  0  0  0  0  0  0  0
   -1.7350   21.3620   71.9020 O   0  0  0  0  0  0  0  0  0  0  0  0
   -9.0600   15.2450   66.0160 O   0  0  0  0  0  0  0  0  0  0  0  0
   -9.8250   14.4450   65.0670 C   0  0  0  0  0  0  0  0  0  0  0  0
  -10.0640   13.1600   65.6350 O   0  0  0  0  0  0  0  0  0  0  0  0
  -10.7920   12.3090   64.8120 C   0  0  0  0  0  0  0  0  0  0  0  0
  -10.4080   11.0490   64.5890 C   0  0  0  0  0  0  0  0  0  0  0  0
  -12.0690   12.7890   64.2190 C   0  0  0  0  0  0  0  0  0  0  0  0
   -9.2410   10.5370   65.0950 O   0  0  0  0  0  0  0  0  0  0  0  0
  -12.2880   14.2530   64.5080 C   0  0  0  0  0  0  0  0  0  0  0  0
  -12.8710   12.1410   63.5810 O   0  0  0  0  0  0  0  0  0  0  0  0
  -11.0950   15.1620   64.5760 C   0  0  0  0  0  0  0  0  0  0  0  0
  -13.3490   14.6920   64.9430 O   0  0  0  0  0  0  0  0  0  0  0  0
  -11.2580   16.3800   64.5300 O   0  0  0  0  0  0  0  0  0  0  0  0
  1 43  1  0  0  0  0
  1  2  2  0  0  0  0
  1  6  1  0  0  0  0
  2  3  1  0  0  0  0
  2 20  1  0  0  0  0
  3  4  1  0  0  0  0
  4  5  2  0  0  0  0
  4 15  1  0  0  0  0
  5  6  1  0  0  0  0
  5  7  1  0  0  0  0
  7  8  1  0  0  0  0
  7 13  1  0  0  0  0
  8  9  1  0  0  0  0
  9 10  2  0  0  0  0
  9 11  1  0  0  0  0
 11 12  1  0  0  0  0
 12 13  1  0  0  0  0
 12 19  1  0  0  0  0
 13 14  2  0  0  0  0
 14 15  1  0  0  0  0
 14 16  1  0  0  0  0
 16 17  2  0  0  0  0
 16 18  1  0  0  0  0
 18 19  2  0  0  0  0
 20 21  2  0  0  0  0
 20 26  1  0  0  0  0
 21 22  1  0  0  0  0
 22 23  1  0  0  0  0
 22 24  2  0  0  0  0
 24 25  1  0  0  0  0
 25 26  2  0  0  0  0
 25 27  1  0  0  0  0
 26 28  1  0  0  0  0
 27 31  2  0  0  0  0
 27 37  1  0  0  0  0
 28 29  2  0  0  0  0
 29 30  1  0  0  0  0
 29 31  1  0  0  0  0
 30 32  2  0  0  0  0
 30 33  1  0  0  0  0
 31 36  1  0  0  0  0
 33 34  2  0  0  0  0
 33 35  1  0  0  0  0
 35 36  1  0  0  0  0
 35 38  1  0  0  0  0
 38 39  1  0  0  0  0
 38 40  1  0  0  0  0
 38 41  1  0  0  0  0
 40 41  1  0  0  0  0
 41 42  2  0  0  0  0
 43 44  1  0  0  0  0
 44 45  1  0  0  0  0
 44 52  1  0  0  0  0
 45 46  1  0  0  0  0
 46 47  2  0  0  0  0
 46 48  1  0  0  0  0
 47 49  1  0  0  0  0
 48 50  1  0  0  0  0
 48 51  2  0  0  0  0
 50 52  1  0  0  0  0
 50 53  2  0  0  0  0
 52 54  2  0  0  0  0
M  CHG  4  15   1  18   1  19   1  22   1
M  END