
 OpenBabel11212021193D

 53 61  0  0  1  0  0  0  0  0999 V2000
  -11.0690   15.6880   67.2480 C   0  0  0  0  0  0  0  0  0  0  0  0
  -10.7570   16.7990   67.9590 C   0  0  0  0  0  0  0  0  0  0  0  0
  -11.2170   16.9710   69.2770 O   0  0  0  0  0  0  0  0  0  0  0  0
  -11.8010   15.9070   69.9690 C   0  0  0  0  0  0  0  0  0  0  0  0
  -12.1200   14.7700   69.3310 C   0  0  0  0  0  0  0  0  0  0  0  0
  -11.8870   14.5900   67.8710 C   0  0  0  0  0  0  0  0  0  0  0  0
  -12.7020   13.5790   70.0320 C   0  0  0  0  0  0  0  0  0  0  0  0
  -11.7620   12.5220   69.8880 O   0  0  0  0  0  0  0  0  0  0  0  0
  -12.0600   11.3650   70.5070 C   0  0  0  0  0  0  0  0  0  0  0  0
  -11.4860   10.2790   70.1580 N   0  0  0  0  0  0  0  0  0  0  0  0
  -12.9740   11.3930   71.4920 O   0  0  0  0  0  0  0  0  0  0  0  0
  -13.3750   12.5960   72.1680 C   0  0  0  0  0  0  0  0  0  0  0  0
  -12.8810   13.8280   71.4820 C   0  0  0  0  0  0  0  0  0  0  0  0
  -12.5670   15.0070   72.0690 C   0  0  0  0  0  0  0  0  0  0  0  0
  -12.0370   16.0520   71.3210 O   0  0  0  0  0  0  0  0  0  0  0  0
   -9.9200   17.9270   67.4150 C   0  0  0  0  0  0  0  0  0  0  0  0
  -10.5050   18.8300   66.5240 C   0  0  0  0  0  0  0  0  0  0  0  0
   -9.8190   19.8420   65.9980 N   0  0  0  0  0  0  0  0  0  0  0  0
  -10.4310   20.6540   65.1140 F   0  0  0  0  0  0  0  0  0  0  0  0
   -8.5730   20.0910   66.3240 N   0  0  0  0  0  0  0  0  0  0  0  0
   -7.9280   19.3020   67.1890 C   0  0  0  0  0  0  0  0  0  0  0  0
   -8.5590   18.1690   67.7540 C   0  0  0  0  0  0  0  0  0  0  0  0
   -6.6020   19.6040   67.5530 C   0  0  0  0  0  0  0  0  0  0  0  0
   -7.7800   17.3540   68.6120 C   0  0  0  0  0  0  0  0  0  0  0  0
   -6.4640   17.6810   68.9610 C   0  0  0  0  0  0  0  0  0  0  0  0
   -5.7330   16.8240   69.8970 C   0  0  0  0  0  0  0  0  0  0  0  0
   -5.8720   18.8210   68.4600 C   0  0  0  0  0  0  0  0  0  0  0  0
   -6.2420   15.7920   70.3100 O   0  0  0  0  0  0  0  0  0  0  0  0
   -4.3720   17.3130   70.3440 C   0  0  0  0  0  0  0  0  0  0  0  0
   -3.5840   16.5370   70.8610 O   0  0  0  0  0  0  0  0  0  0  0  0
   -4.1360   18.7900   70.1190 C   0  0  0  0  0  0  0  0  0  0  0  0
   -4.6270   19.2370   68.8400 O   0  0  0  0  0  0  0  0  0  0  0  0
   -5.7840   21.1800   66.8380 Br  0  0  0  0  0  0  0  0  0  0  0  0
   -4.6240   19.6400   71.2730 C   0  0  0  0  0  0  0  0  0  0  0  0
   -5.9470   19.3480   71.7610 O   0  0  0  0  0  0  0  0  0  0  0  0
   -3.6500   19.9230   72.2930 O   0  0  0  0  0  0  0  0  0  0  0  0
   -4.1200   20.9580   71.5970 C   0  0  0  0  0  0  0  0  0  0  0  0
   -3.5790   21.8230   70.9220 O   0  0  0  0  0  0  0  0  0  0  0  0
  -10.6040   15.5030   65.9530 O   0  0  0  0  0  0  0  0  0  0  0  0
  -10.2510   14.1770   65.5220 C   0  0  0  0  0  0  0  0  0  0  0  0
  -10.0390   13.3120   66.6310 O   0  0  0  0  0  0  0  0  0  0  0  0
   -9.6960   12.0060   66.3150 C   0  0  0  0  0  0  0  0  0  0  0  0
   -9.0070   11.2600   67.1890 C   0  0  0  0  0  0  0  0  0  0  0  0
  -10.1170   11.3640   65.0290 C   0  0  0  0  0  0  0  0  0  0  0  0
   -8.5730   11.7380   68.4010 O   0  0  0  0  0  0  0  0  0  0  0  0
  -10.9310   12.2710   64.1210 C   0  0  0  0  0  0  0  0  0  0  0  0
   -9.8130   10.2320   64.7030 O   0  0  0  0  0  0  0  0  0  0  0  0
  -11.3550   13.6070   64.6640 C   0  0  0  0  0  0  0  0  0  0  0  0
  -11.0950   12.0290   62.9390 O   0  0  0  0  0  0  0  0  0  0  0  0
  -12.4260   14.1370   64.4210 O   0  0  0  0  0  0  0  0  0  0  0  0
  -12.7230   15.2680   73.5180 C   0  0  0  0  0  0  0  0  0  0  0  0
  -12.0930   16.3950   74.1360 O   0  0  0  0  0  0  0  0  0  0  0  0
  -13.5250   16.3730   73.9730 O   0  0  0  0  0  0  0  0  0  0  0  0
  1 39  1  0  0  0  0
  1  2  2  0  0  0  0
  1  6  1  0  0  0  0
  2  3  1  0  0  0  0
  2 16  1  0  0  0  0
  3  4  1  0  0  0  0
  4  5  2  0  0  0  0
  4 15  1  0  0  0  0
  5  6  1  0  0  0  0
  5  7  1  0  0  0  0
  7  8  1  0  0  0  0
  7 13  1  0  0  0  0
  8  9  1  0  0  0  0
  9 10  2  0  0  0  0
  9 11  1  0  0  0  0
 11 12  1  0  0  0  0
 12 13  1  0  0  0  0
 13 14  2  0  0  0  0
 14 15  1  0  0  0  0
 14 51  1  0  0  0  0
 16 17  2  0  0  0  0
 16 22  1  0  0  0  0
 17 18  1  0  0  0  0
 18 19  1  0  0  0  0
 18 20  2  0  0  0  0
 20 21  1  0  0  0  0
 21 22  2  0  0  0  0
 21 23  1  0  0  0  0
 22 24  1  0  0  0  0
 23 27  2  0  0  0  0
 23 33  1  0  0  0  0
 24 25  2  0  0  0  0
 25 26  1  0  0  0  0
 25 27  1  0  0  0  0
 26 28  2  0  0  0  0
 26 29  1  0  0  0  0
 27 32  1  0  0  0  0
 29 30  2  0  0  0  0
 29 31  1  0  0  0  0
 31 32  1  0  0  0  0
 31 34  1  0  0  0  0
 34 35  1  0  0  0  0
 34 36  1  0  0  0  0
 34 37  1  0  0  0  0
 36 37  1  0  0  0  0
 37 38  2  0  0  0  0
 39 40  1  0  0  0  0
 40 41  1  0  0  0  0
 40 48  1  0  0  0  0
 41 42  1  0  0  0  0
 42 43  2  0  0  0  0
 42 44  1  0  0  0  0
 43 45  1  0  0  0  0
 44 46  1  0  0  0  0
 44 47  2  0  0  0  0
 46 48  1  0  0  0  0
 46 49  2  0  0  0  0
 48 50  2  0  0  0  0
 51 52  1  0  0  0  0
 51 53  1  0  0  0  0
 52 53  1  0  0  0  0
M  CHG  2  15   1  18   1
M  END