
 OpenBabel10252012563D

 94109  0  0  1  0  0  0  0  0999 V2000
  -10.1800    9.8330   65.8410 C   0  0  0  0  0  0  0  0  0  0  0  0
  -10.7920   11.1600   65.8430 O   0  0  0  0  0  0  0  0  0  0  0  0
  -10.0270   12.2390   66.2000 C   0  0  0  0  0  0  0  0  0  0  0  0
   -8.7770   12.1040   66.7750 C   0  0  0  0  0  0  0  0  0  0  0  0
   -8.0450   10.7980   66.7340 C   0  0  0  0  0  0  0  0  0  0  0  0
   -8.6490    9.9010   65.6480 C   0  0  0  0  0  0  0  0  0  0  0  0
   -6.6550   11.0750   66.5100 O   0  0  0  0  0  0  0  0  0  0  0  0
   -8.1400   13.2180   67.3110 C   0  0  0  0  0  0  0  0  0  0  0  0
   -8.4980   14.5290   66.9650 C   0  0  0  0  0  0  0  0  0  0  0  0
   -9.6770   14.6910   66.2060 C   0  0  0  0  0  0  0  0  0  0  0  0
  -10.4780   13.5350   65.9320 C   0  0  0  0  0  0  0  0  0  0  0  0
  -11.6550   13.6860   65.2980 F   0  0  0  0  0  0  0  0  0  0  0  0
   -9.9070   16.0010   65.7620 C   0  0  0  0  0  0  0  0  0  0  0  0
  -11.3030   16.4630   64.8320 Cl  0  0  0  0  0  0  0  0  0  0  0  0
   -8.9600   17.0430   65.9550 C   0  0  0  0  0  0  0  0  0  0  0  0
   -7.7300   16.9140   66.6580 C   0  0  0  0  0  0  0  0  0  0  0  0
   -7.6430   15.6380   67.2840 C   0  0  0  0  0  0  0  0  0  0  0  0
   -6.5610   15.3440   68.6170 Cl  0  0  0  0  0  0  0  0  0  0  0  0
  -10.7120    8.9040   67.0000 C   0  0  0  0  0  0  0  0  0  0  0  0
   -9.8070    7.6900   67.3130 C   0  0  0  0  0  0  0  0  0  0  0  0
  -10.3490    6.3170   66.8550 C   0  0  0  0  0  0  0  0  0  0  0  0
   -9.3590    7.4990   68.7380 C   0  0  0  0  0  0  0  0  0  0  0  0
  -11.5160    6.0520   67.5000 F   0  0  0  0  0  0  0  0  0  0  0  0
   -9.3520    5.1710   67.1230 C   0  0  0  0  0  0  0  0  0  0  0  0
   -8.0280    5.6550   67.7590 C   0  0  0  0  0  0  0  0  0  0  0  0
   -7.0800    4.4730   67.9720 C   0  0  0  0  0  0  0  0  0  0  0  0
   -8.3870    6.5200   68.9720 C   0  0  0  0  0  0  0  0  0  0  0  0
   -6.9560    4.0960   69.4170 C   0  0  0  0  0  0  0  0  0  0  0  0
   -6.7350    5.3080   70.3020 C   0  0  0  0  0  0  0  0  0  0  0  0
   -7.8500    6.3080   70.2700 C   0  0  0  0  0  0  0  0  0  0  0  0
   -5.1870    6.1410   69.9160 Cl  0  0  0  0  0  0  0  0  0  0  0  0
   -8.3590    7.0550   71.3980 C   0  0  0  0  0  0  0  0  0  0  0  0
   -9.4160    7.9470   71.0880 C   0  0  0  0  0  0  0  0  0  0  0  0
   -9.9250    8.1870   69.7970 C   0  0  0  0  0  0  0  0  0  0  0  0
  -11.1130    9.0690   69.5430 C   0  0  0  0  0  0  0  0  0  0  0  0
  -10.9270    9.8200   68.2320 C   0  0  0  0  0  0  0  0  0  0  0  0
   -7.9160    6.9390   72.8780 C   0  0  0  0  0  0  0  0  0  0  0  0
   -7.2470    7.9980   73.5260 C   0  0  0  0  0  0  0  0  0  0  0  0
   -6.8150    7.9440   74.8780 C   0  0  0  0  0  0  0  0  0  0  0  0
   -6.0070    9.1020   75.4430 C   0  0  0  0  0  0  0  0  0  0  0  0
   -7.1120    6.8290   75.6610 C   0  0  0  0  0  0  0  0  0  0  0  0
   -4.5750    9.0600   74.8640 C   0  0  0  0  0  0  0  0  0  0  0  0
   -6.0110    9.1040   76.9880 C   0  0  0  0  0  0  0  0  0  0  0  0
   -3.7030   10.1690   75.4370 C   0  0  0  0  0  0  0  0  0  0  0  0
   -3.6590   10.1330   76.9710 C   0  0  0  0  0  0  0  0  0  0  0  0
   -5.0930   10.2210   77.5440 C   0  0  0  0  0  0  0  0  0  0  0  0
   -2.7560   11.2620   77.4760 C   0  0  0  0  0  0  0  0  0  0  0  0
   -5.1190   10.2530   79.0760 C   0  0  0  0  0  0  0  0  0  0  0  0
   -5.6850    7.7020   77.5350 C   0  0  0  0  0  0  0  0  0  0  0  0
   -6.7460    6.6810   77.1060 C   0  0  0  0  0  0  0  0  0  0  0  0
   -8.0100    6.7670   77.9750 C   0  0  0  0  0  0  0  0  0  0  0  0
   -7.7880    5.7880   75.0700 C   0  0  0  0  0  0  0  0  0  0  0  0
   -8.1120    5.8380   73.7360 C   0  0  0  0  0  0  0  0  0  0  0  0
   -8.5430    4.6070   73.3570 F   0  0  0  0  0  0  0  0  0  0  0  0
   -8.3600   10.5270   64.3570 O   0  0  0  0  0  0  0  0  0  0  0  0
   -8.4370    9.7360   63.2400 C   0  0  0  0  0  0  0  0  0  0  0  0
   -8.8660   10.3440   62.0580 C   0  0  0  0  0  0  0  0  0  0  0  0
   -8.9320    9.6040   60.8730 C   0  0  0  0  0  0  0  0  0  0  0  0
   -8.5270    8.2670   60.8590 C   0  0  0  0  0  0  0  0  0  0  0  0
   -8.0900    7.6530   62.0300 C   0  0  0  0  0  0  0  0  0  0  0  0
   -8.1180    8.3790   63.2210 C   0  0  0  0  0  0  0  0  0  0  0  0
   -7.8660    6.2780   62.0870 N   0  0  0  0  0  0  0  0  0  0  0  0
   -6.7010   18.1030   66.6640 C   0  0  0  0  0  0  0  0  0  0  0  0
   -5.7620   18.2320   65.5770 C   0  0  0  0  0  0  0  0  0  0  0  0
   -4.9040   19.3930   65.2910 C   0  0  0  0  0  0  0  0  0  0  0  0
   -4.0440   19.8210   64.0870 C   0  0  0  0  0  0  0  0  0  0  0  0
   -4.9150   20.3060   66.3580 N   0  0  0  0  0  0  0  0  0  0  0  0
   -3.4590   21.0990   64.0720 C   0  0  0  0  0  0  0  0  0  0  0  0
   -3.0180   21.7090   62.8690 N   0  0  0  0  0  0  0  0  0  0  0  0
   -3.5580   21.8410   65.2320 C   0  0  0  0  0  0  0  0  0  0  0  0
   -4.2050   21.4280   66.3150 N   0  0  0  0  0  0  0  0  0  0  0  0
   -5.6470   20.1170   67.4840 N   0  0  0  0  0  0  0  0  0  0  0  0
   -6.5390   19.1060   67.6520 C   0  0  0  0  0  0  0  0  0  0  0  0
   -5.4770   21.2620   68.7800 Cl  0  0  0  0  0  0  0  0  0  0  0  0
   -7.1910   19.1810   68.8250 O   0  0  0  0  0  0  0  0  0  0  0  0
   -3.7790   19.0090   62.7440 N   0  0  0  0  0  0  0  0  0  0  0  0
   -2.5720   18.2780   62.5190 N   0  0  0  0  0  0  0  0  0  0  0  0
   -1.6470   17.6180   63.8320 Cl  0  0  0  0  0  0  0  0  0  0  0  0
   -2.2080   17.8090   61.2640 C   0  0  0  0  0  0  0  0  0  0  0  0
   -3.1080   17.7200   60.1710 C   0  0  0  0  0  0  0  0  0  0  0  0
   -4.3820   18.1900   60.4530 C   0  0  0  0  0  0  0  0  0  0  0  0
   -2.8590   17.2030   58.8550 N   0  0  0  0  0  0  0  0  0  0  0  0
   -4.6550   19.0010   61.6690 C   0  0  0  0  0  0  0  0  0  0  0  0
   -5.3240   17.9240   59.5420 N   0  0  0  0  0  0  0  0  0  0  0  0
   -5.7380   19.8730   61.5830 N   0  0  0  0  0  0  0  0  0  0  0  0
   -5.1570   17.2050   58.4060 N   0  0  0  0  0  0  0  0  0  0  0  0
   -3.9000   16.8650   57.9550 C   0  0  0  0  0  0  0  0  0  0  0  0
   -6.6250   16.8780   57.5880 Cl  0  0  0  0  0  0  0  0  0  0  0  0
   -3.5410   16.2880   56.7550 N   0  0  0  0  0  0  0  0  0  0  0  0
   -2.2540   16.2430   56.3450 C   0  0  0  0  0  0  0  0  0  0  0  0
   -4.6460   15.5590   55.6640 Cl  0  0  0  0  0  0  0  0  0  0  0  0
   -1.2790   16.7200   57.1330 N   0  0  0  0  0  0  0  0  0  0  0  0
   -1.5640   17.1160   58.4030 N   0  0  0  0  0  0  0  0  0  0  0  0
    0.1260   16.8360   56.5950 C   0  0  0  0  0  0  0  0  0  0  0  0
  1 19  1  0  0  0  0
  1  2  1  0  0  0  0
  1  6  1  0  0  0  0
  2  3  1  0  0  0  0
  3  4  2  0  0  0  0
  3 11  1  0  0  0  0
  4  5  1  0  0  0  0
  4  8  1  0  0  0  0
  5  6  1  0  0  0  0
  5  7  1  0  0  0  0
  6 55  1  0  0  0  0
  8  9  2  0  0  0  0
  9 10  1  0  0  0  0
  9 17  1  0  0  0  0
 10 11  2  0  0  0  0
 10 13  1  0  0  0  0
 11 12  1  0  0  0  0
 13 14  1  0  0  0  0
 13 15  2  0  0  0  0
 15 16  1  0  0  0  0
 16 17  2  0  0  0  0
 16 63  1  0  0  0  0
 17 18  1  0  0  0  0
 19 20  1  0  0  0  0
 19 36  1  0  0  0  0
 20 21  1  0  0  0  0
 20 22  1  0  0  0  0
 21 23  1  0  0  0  0
 21 24  1  0  0  0  0
 22 27  1  0  0  0  0
 22 34  2  0  0  0  0
 24 25  1  0  0  0  0
 25 26  1  0  0  0  0
 25 27  1  0  0  0  0
 26 28  1  0  0  0  0
 27 30  2  0  0  0  0
 28 29  1  0  0  0  0
 29 30  1  0  0  0  0
 29 31  1  0  0  0  0
 30 32  1  0  0  0  0
 32 33  2  0  0  0  0
 32 37  1  0  0  0  0
 33 34  1  0  0  0  0
 34 35  1  0  0  0  0
 35 36  1  0  0  0  0
 37 38  2  0  0  0  0
 37 53  1  0  0  0  0
 38 39  1  0  0  0  0
 39 40  1  0  0  0  0
 39 41  2  0  0  0  0
 40 42  1  0  0  0  0
 40 43  1  0  0  0  0
 41 50  1  0  0  0  0
 41 52  1  0  0  0  0
 42 44  1  0  0  0  0
 43 46  1  0  0  0  0
 43 49  1  0  0  0  0
 44 45  1  0  0  0  0
 45 46  1  0  0  0  0
 45 47  1  0  0  0  0
 46 48  1  0  0  0  0
 49 50  1  0  0  0  0
 50 51  1  0  0  0  0
 52 53  2  0  0  0  0
 53 54  1  0  0  0  0
 55 56  1  0  0  0  0
 56 57  2  0  0  0  0
 56 61  1  0  0  0  0
 57 58  1  0  0  0  0
 58 59  2  0  0  0  0
 59 60  1  0  0  0  0
 60 61  2  0  0  0  0
 60 62  1  0  0  0  0
 63 64  2  0  0  0  0
 63 73  1  0  0  0  0
 64 65  1  0  0  0  0
 65 66  2  0  0  0  0
 65 67  1  0  0  0  0
 66 68  1  0  0  0  0
 66 76  1  0  0  0  0
 67 71  2  0  0  0  0
 67 72  1  0  0  0  0
 68 69  1  0  0  0  0
 68 70  2  0  0  0  0
 70 71  1  0  0  0  0
 72 73  2  0  0  0  0
 72 74  1  0  0  0  0
 73 75  1  0  0  0  0
 76 77  2  0  0  0  0
 76 83  1  0  0  0  0
 77 78  1  0  0  0  0
 77 79  1  0  0  0  0
 79 80  2  0  0  0  0
 80 81  1  0  0  0  0
 80 82  1  0  0  0  0
 81 83  2  0  0  0  0
 81 84  1  0  0  0  0
 82 87  2  0  0  0  0
 82 93  1  0  0  0  0
 83 85  1  0  0  0  0
 84 86  2  0  0  0  0
 86 87  1  0  0  0  0
 86 88  1  0  0  0  0
 87 89  1  0  0  0  0
 89 90  2  0  0  0  0
 89 91  1  0  0  0  0
 90 92  1  0  0  0  0
 92 93  2  0  0  0  0
 92 94  1  0  0  0  0
M  CHG  8  67   1  72   1  76   1  77   1  86   1  82   1  92   1  89   1
M  END