
 OpenBabel11142002193D

 51 59  0  0  1  0  0  0  0  0999 V2000
  -10.9240   15.8040   67.0950 C   0  0  0  0  0  0  0  0  0  0  0  0
  -10.6710   16.9200   67.8110 C   0  0  0  0  0  0  0  0  0  0  0  0
  -11.0200   17.0640   69.1550 O   0  0  0  0  0  0  0  0  0  0  0  0
  -11.6170   15.9990   69.8180 C   0  0  0  0  0  0  0  0  0  0  0  0
  -11.8990   14.8450   69.1960 C   0  0  0  0  0  0  0  0  0  0  0  0
  -11.6220   14.6470   67.7540 C   0  0  0  0  0  0  0  0  0  0  0  0
  -12.5180   13.6870   69.9290 C   0  0  0  0  0  0  0  0  0  0  0  0
  -11.6920   12.5370   69.7590 O   0  0  0  0  0  0  0  0  0  0  0  0
  -12.2450   11.3830   70.2090 C   0  0  0  0  0  0  0  0  0  0  0  0
  -11.9960   10.2980   69.7000 O   0  0  0  0  0  0  0  0  0  0  0  0
  -13.1480   11.5360   71.2140 O   0  0  0  0  0  0  0  0  0  0  0  0
  -13.0070   12.6520   72.1120 C   0  0  0  0  0  0  0  0  0  0  0  0
  -12.6330   13.9010   71.3970 C   0  0  0  0  0  0  0  0  0  0  0  0
  -12.3380   15.0930   71.9630 C   0  0  0  0  0  0  0  0  0  0  0  0
  -11.9070   16.1390   71.1540 N   0  0  0  0  0  0  0  0  0  0  0  0
   -9.9640   18.0810   67.2430 C   0  0  0  0  0  0  0  0  0  0  0  0
  -10.6880   18.7730   66.3340 N   0  0  0  0  0  0  0  0  0  0  0  0
  -10.1060   19.8660   65.8360 C   0  0  0  0  0  0  0  0  0  0  0  0
   -8.8940   20.3320   66.1600 N   0  0  0  0  0  0  0  0  0  0  0  0
   -8.1920   19.6350   67.0570 C   0  0  0  0  0  0  0  0  0  0  0  0
   -8.6680   18.4500   67.6410 C   0  0  0  0  0  0  0  0  0  0  0  0
   -6.9400   20.1130   67.4310 C   0  0  0  0  0  0  0  0  0  0  0  0
   -7.8420   17.7430   68.5510 C   0  0  0  0  0  0  0  0  0  0  0  0
   -6.5800   18.2400   68.8900 C   0  0  0  0  0  0  0  0  0  0  0  0
   -6.1400   19.4450   68.3610 C   0  0  0  0  0  0  0  0  0  0  0  0
   -5.6970   17.4820   69.7850 C   0  0  0  0  0  0  0  0  0  0  0  0
   -4.9540   20.0510   68.6740 O   0  0  0  0  0  0  0  0  0  0  0  0
   -4.2870   19.5850   69.8550 C   0  0  0  0  0  0  0  0  0  0  0  0
   -4.3390   18.0880   70.0470 C   0  0  0  0  0  0  0  0  0  0  0  0
   -3.3890   17.4010   70.3960 O   0  0  0  0  0  0  0  0  0  0  0  0
   -6.0180   16.4070   70.2670 O   0  0  0  0  0  0  0  0  0  0  0  0
   -4.7860   20.2990   71.0720 C   0  0  0  0  0  0  0  0  0  0  0  0
   -6.2200   20.3370   71.2590 O   0  0  0  0  0  0  0  0  0  0  0  0
   -4.0180   20.0450   72.2520 O   0  0  0  0  0  0  0  0  0  0  0  0
   -4.0210   21.3120   71.7970 C   0  0  0  0  0  0  0  0  0  0  0  0
   -4.3850   22.3280   72.3450 O   0  0  0  0  0  0  0  0  0  0  0  0
  -10.5930   15.6990   65.7410 O   0  0  0  0  0  0  0  0  0  0  0  0
  -10.4100   14.3650   65.2430 C   0  0  0  0  0  0  0  0  0  0  0  0
  -10.3590   13.4030   66.3040 O   0  0  0  0  0  0  0  0  0  0  0  0
   -9.9180   12.1670   65.8900 C   0  0  0  0  0  0  0  0  0  0  0  0
   -9.0270   11.4670   66.6050 C   0  0  0  0  0  0  0  0  0  0  0  0
  -10.4860   11.5820   64.6420 C   0  0  0  0  0  0  0  0  0  0  0  0
   -8.4640   11.9250   67.7720 O   0  0  0  0  0  0  0  0  0  0  0  0
  -11.4010   12.4780   63.8300 C   0  0  0  0  0  0  0  0  0  0  0  0
  -10.2030   10.4380   64.2930 O   0  0  0  0  0  0  0  0  0  0  0  0
  -11.5680   13.8850   64.3730 C   0  0  0  0  0  0  0  0  0  0  0  0
  -12.6100   11.8730   63.6250 F   0  0  0  0  0  0  0  0  0  0  0  0
  -12.5210   14.6010   64.0580 O   0  0  0  0  0  0  0  0  0  0  0  0
  -12.4190   15.3640   73.4130 C   0  0  0  0  0  0  0  0  0  0  0  0
  -12.0580   16.6370   73.9720 O   0  0  0  0  0  0  0  0  0  0  0  0
  -13.4350   16.2130   73.9700 O   0  0  0  0  0  0  0  0  0  0  0  0
  1 37  1  0  0  0  0
  1  2  2  0  0  0  0
  1  6  1  0  0  0  0
  2  3  1  0  0  0  0
  2 16  1  0  0  0  0
  3  4  1  0  0  0  0
  4  5  2  0  0  0  0
  4 15  1  0  0  0  0
  5  6  1  0  0  0  0
  5  7  1  0  0  0  0
  7  8  1  0  0  0  0
  7 13  1  0  0  0  0
  8  9  1  0  0  0  0
  9 10  2  0  0  0  0
  9 11  1  0  0  0  0
 11 12  1  0  0  0  0
 12 13  1  0  0  0  0
 13 14  2  0  0  0  0
 14 15  1  0  0  0  0
 14 49  1  0  0  0  0
 16 17  2  0  0  0  0
 16 21  1  0  0  0  0
 17 18  1  0  0  0  0
 18 19  2  0  0  0  0
 19 20  1  0  0  0  0
 20 21  2  0  0  0  0
 20 22  1  0  0  0  0
 21 23  1  0  0  0  0
 22 25  2  0  0  0  0
 23 24  2  0  0  0  0
 24 25  1  0  0  0  0
 24 26  1  0  0  0  0
 25 27  1  0  0  0  0
 26 29  1  0  0  0  0
 26 31  2  0  0  0  0
 27 28  1  0  0  0  0
 28 29  1  0  0  0  0
 28 32  1  0  0  0  0
 29 30  2  0  0  0  0
 32 33  1  0  0  0  0
 32 34  1  0  0  0  0
 32 35  1  0  0  0  0
 34 35  1  0  0  0  0
 35 36  2  0  0  0  0
 37 38  1  0  0  0  0
 38 39  1  0  0  0  0
 38 46  1  0  0  0  0
 39 40  1  0  0  0  0
 40 41  2  0  0  0  0
 40 42  1  0  0  0  0
 41 43  1  0  0  0  0
 42 44  1  0  0  0  0
 42 45  2  0  0  0  0
 44 46  1  0  0  0  0
 44 47  1  0  0  0  0
 46 48  2  0  0  0  0
 49 50  1  0  0  0  0
 49 51  1  0  0  0  0
 50 51  1  0  0  0  0
M  END
