
 OpenBabel11232015213D

 53 61  0  0  1  0  0  0  0  0999 V2000
  -10.1240   15.5440   67.6450 C   0  0  0  0  0  0  0  0  0  0  0  0
  -10.1530   16.7710   68.2160 C   0  0  0  0  0  0  0  0  0  0  0  0
  -10.7320   17.0220   69.4710 O   0  0  0  0  0  0  0  0  0  0  0  0
  -11.3160   15.9690   70.1840 C   0  0  0  0  0  0  0  0  0  0  0  0
  -11.2740   14.7180   69.7070 C   0  0  0  0  0  0  0  0  0  0  0  0
  -10.6380   14.3490   68.4090 C   0  0  0  0  0  0  0  0  0  0  0  0
  -11.9580   13.6460   70.4650 C   0  0  0  0  0  0  0  0  0  0  0  0
  -11.9130   12.4250   70.0480 N   0  0  0  0  0  0  0  0  0  0  0  0
  -12.5790   11.4830   70.7720 C   0  0  0  0  0  0  0  0  0  0  0  0
  -12.4930   10.2880   70.3400 N   0  0  0  0  0  0  0  0  0  0  0  0
  -13.3240   11.6990   71.8940 N   0  0  0  0  0  0  0  0  0  0  0  0
  -13.4090   12.9050   72.3200 C   0  0  0  0  0  0  0  0  0  0  0  0
  -12.7010   14.0420   71.6960 C   0  0  0  0  0  0  0  0  0  0  0  0
  -12.6710   15.3280   72.1310 C   0  0  0  0  0  0  0  0  0  0  0  0
  -11.9530   16.2750   71.3870 N   0  0  0  0  0  0  0  0  0  0  0  0
   -9.5570   17.9640   67.5700 C   0  0  0  0  0  0  0  0  0  0  0  0
  -10.3290   18.6970   66.6740 C   0  0  0  0  0  0  0  0  0  0  0  0
   -9.8350   19.8000   66.0960 N   0  0  0  0  0  0  0  0  0  0  0  0
  -10.6160   20.5090   65.2600 F   0  0  0  0  0  0  0  0  0  0  0  0
   -8.6120   20.2380   66.3280 N   0  0  0  0  0  0  0  0  0  0  0  0
   -7.8070   19.5660   67.1580 C   0  0  0  0  0  0  0  0  0  0  0  0
   -8.2330   18.4000   67.8180 C   0  0  0  0  0  0  0  0  0  0  0  0
   -6.5090   20.0380   67.3880 C   0  0  0  0  0  0  0  0  0  0  0  0
   -7.3200   17.7510   68.6860 C   0  0  0  0  0  0  0  0  0  0  0  0
   -6.0300   18.2650   68.9060 C   0  0  0  0  0  0  0  0  0  0  0  0
   -5.1350   17.6160   69.8660 C   0  0  0  0  0  0  0  0  0  0  0  0
   -5.6130   19.4130   68.2600 C   0  0  0  0  0  0  0  0  0  0  0  0
   -5.5180   16.6560   70.5160 O   0  0  0  0  0  0  0  0  0  0  0  0
   -3.7620   18.2190   70.0490 C   0  0  0  0  0  0  0  0  0  0  0  0
   -2.8680   17.5600   70.5560 O   0  0  0  0  0  0  0  0  0  0  0  0
   -3.6440   19.6650   69.6180 C   0  0  0  0  0  0  0  0  0  0  0  0
   -4.3950   20.0030   68.4380 O   0  0  0  0  0  0  0  0  0  0  0  0
   -6.1230   21.1660   66.7710 F   0  0  0  0  0  0  0  0  0  0  0  0
   -3.9190   20.6060   70.7680 C   0  0  0  0  0  0  0  0  0  0  0  0
   -5.1270   21.3830   70.6920 O   0  0  0  0  0  0  0  0  0  0  0  0
   -3.5800   20.1260   72.0790 O   0  0  0  0  0  0  0  0  0  0  0  0
   -2.8700   21.1580   71.6070 C   0  0  0  0  0  0  0  0  0  0  0  0
   -1.6740   21.3080   71.4190 O   0  0  0  0  0  0  0  0  0  0  0  0
   -9.5590   15.3470   66.3870 O   0  0  0  0  0  0  0  0  0  0  0  0
  -10.0840   14.2950   65.5240 C   0  0  0  0  0  0  0  0  0  0  0  0
  -10.4680   13.1480   66.2600 O   0  0  0  0  0  0  0  0  0  0  0  0
  -10.9650   12.1040   65.5030 C   0  0  0  0  0  0  0  0  0  0  0  0
  -10.6390   10.8430   65.8040 C   0  0  0  0  0  0  0  0  0  0  0  0
  -11.9210   12.3430   64.3870 C   0  0  0  0  0  0  0  0  0  0  0  0
   -9.7710   10.5400   66.8230 O   0  0  0  0  0  0  0  0  0  0  0  0
  -12.0060   13.7890   63.9370 C   0  0  0  0  0  0  0  0  0  0  0  0
  -12.6070   11.4750   63.8780 O   0  0  0  0  0  0  0  0  0  0  0  0
  -11.1780   14.8510   64.6210 C   0  0  0  0  0  0  0  0  0  0  0  0
  -12.7600   14.1240   63.0370 O   0  0  0  0  0  0  0  0  0  0  0  0
  -11.4030   16.0500   64.4690 O   0  0  0  0  0  0  0  0  0  0  0  0
  -13.3730   15.8150   73.3410 C   0  0  0  0  0  0  0  0  0  0  0  0
  -12.6870   16.8080   74.2210 N   0  0  0  0  0  0  0  0  0  0  0  0
  -12.6810   15.7940   74.6680 N   0  0  0  0  0  0  0  0  0  0  0  0
  1 39  1  0  0  0  0
  1  2  2  0  0  0  0
  1  6  1  0  0  0  0
  2  3  1  0  0  0  0
  2 16  1  0  0  0  0
  3  4  1  0  0  0  0
  4  5  2  0  0  0  0
  4 15  1  0  0  0  0
  5  6  1  0  0  0  0
  5  7  1  0  0  0  0
  7  8  2  0  0  0  0
  7 13  1  0  0  0  0
  8  9  1  0  0  0  0
  9 10  2  0  0  0  0
  9 11  1  0  0  0  0
 11 12  2  0  0  0  0
 12 13  1  0  0  0  0
 13 14  2  0  0  0  0
 14 15  1  0  0  0  0
 14 51  1  0  0  0  0
 16 17  2  0  0  0  0
 16 22  1  0  0  0  0
 17 18  1  0  0  0  0
 18 19  1  0  0  0  0
 18 20  2  0  0  0  0
 20 21  1  0  0  0  0
 21 22  2  0  0  0  0
 21 23  1  0  0  0  0
 22 24  1  0  0  0  0
 23 27  2  0  0  0  0
 23 33  1  0  0  0  0
 24 25  2  0  0  0  0
 25 26  1  0  0  0  0
 25 27  1  0  0  0  0
 26 28  2  0  0  0  0
 26 29  1  0  0  0  0
 27 32  1  0  0  0  0
 29 30  2  0  0  0  0
 29 31  1  0  0  0  0
 31 32  1  0  0  0  0
 31 34  1  0  0  0  0
 34 35  1  0  0  0  0
 34 36  1  0  0  0  0
 34 37  1  0  0  0  0
 36 37  1  0  0  0  0
 37 38  2  0  0  0  0
 39 40  1  0  0  0  0
 40 41  1  0  0  0  0
 40 48  1  0  0  0  0
 41 42  1  0  0  0  0
 42 43  2  0  0  0  0
 42 44  1  0  0  0  0
 43 45  1  0  0  0  0
 44 46  1  0  0  0  0
 44 47  2  0  0  0  0
 46 48  1  0  0  0  0
 46 49  2  0  0  0  0
 48 50  2  0  0  0  0
 51 52  1  0  0  0  0
 51 53  1  0  0  0  0
 52 53  3  0  0  0  0
M  CHG  3  52   1  53   1  18   1
M  END