
 OpenBabel11212020033D

 54 62  0  0  1  0  0  0  0  0999 V2000
  -11.2300   15.9110   67.3770 C   0  0  0  0  0  0  0  0  0  0  0  0
  -10.6950   16.9700   68.0420 C   0  0  0  0  0  0  0  0  0  0  0  0
  -10.9090   17.1330   69.4330 O   0  0  0  0  0  0  0  0  0  0  0  0
  -11.5330   16.1230   70.1870 C   0  0  0  0  0  0  0  0  0  0  0  0
  -12.0290   15.0330   69.5830 C   0  0  0  0  0  0  0  0  0  0  0  0
  -11.9790   14.8420   68.1150 C   0  0  0  0  0  0  0  0  0  0  0  0
  -12.6750   13.9030   70.3210 C   0  0  0  0  0  0  0  0  0  0  0  0
  -11.8580   12.7630   70.1340 O   0  0  0  0  0  0  0  0  0  0  0  0
  -12.2420   11.6120   70.7430 C   0  0  0  0  0  0  0  0  0  0  0  0
  -11.8130   10.5280   70.3840 O   0  0  0  0  0  0  0  0  0  0  0  0
  -13.1150   11.7490   71.7690 O   0  0  0  0  0  0  0  0  0  0  0  0
  -13.3870   12.9890   72.4210 C   0  0  0  0  0  0  0  0  0  0  0  0
  -12.7200   14.1490   71.7710 C   0  0  0  0  0  0  0  0  0  0  0  0
  -12.2180   15.2670   72.3430 C   0  0  0  0  0  0  0  0  0  0  0  0
  -11.6200   16.2590   71.5620 O   0  0  0  0  0  0  0  0  0  0  0  0
  -14.7700   13.2640   72.3020 O   0  0  0  0  0  0  0  0  0  0  0  0
   -9.8700   18.0610   67.3820 C   0  0  0  0  0  0  0  0  0  0  0  0
  -10.4840   18.8840   66.4330 C   0  0  0  0  0  0  0  0  0  0  0  0
   -9.8270   19.8650   65.8100 N   0  0  0  0  0  0  0  0  0  0  0  0
  -10.4580   20.5650   64.8470 F   0  0  0  0  0  0  0  0  0  0  0  0
   -8.5970   20.1930   66.1130 N   0  0  0  0  0  0  0  0  0  0  0  0
   -7.9420   19.4990   67.0390 C   0  0  0  0  0  0  0  0  0  0  0  0
   -8.5050   18.3680   67.6780 C   0  0  0  0  0  0  0  0  0  0  0  0
   -6.6570   19.9280   67.3750 C   0  0  0  0  0  0  0  0  0  0  0  0
   -7.6450   17.6520   68.5530 C   0  0  0  0  0  0  0  0  0  0  0  0
   -6.3530   18.1140   68.8700 C   0  0  0  0  0  0  0  0  0  0  0  0
   -5.5250   17.3840   69.8340 C   0  0  0  0  0  0  0  0  0  0  0  0
   -5.8610   19.2750   68.3120 C   0  0  0  0  0  0  0  0  0  0  0  0
   -5.9700   16.4060   70.4140 O   0  0  0  0  0  0  0  0  0  0  0  0
   -4.1340   17.9330   70.0670 C   0  0  0  0  0  0  0  0  0  0  0  0
   -3.2230   17.1780   70.3670 O   0  0  0  0  0  0  0  0  0  0  0  0
   -4.0130   19.4260   69.8480 C   0  0  0  0  0  0  0  0  0  0  0  0
   -4.6630   19.8480   68.6310 O   0  0  0  0  0  0  0  0  0  0  0  0
   -6.1860   21.0440   66.7960 F   0  0  0  0  0  0  0  0  0  0  0  0
   -4.4470   20.2260   71.0550 C   0  0  0  0  0  0  0  0  0  0  0  0
   -5.8390   20.5810   71.1270 O   0  0  0  0  0  0  0  0  0  0  0  0
   -3.8740   19.8260   72.3110 O   0  0  0  0  0  0  0  0  0  0  0  0
   -3.5270   21.0400   71.8480 C   0  0  0  0  0  0  0  0  0  0  0  0
   -2.4560   21.5320   71.5890 O   0  0  0  0  0  0  0  0  0  0  0  0
  -11.0360   15.6930   66.0170 O   0  0  0  0  0  0  0  0  0  0  0  0
  -10.4080   14.4580   65.5600 C   0  0  0  0  0  0  0  0  0  0  0  0
   -9.6120   13.8510   66.5580 O   0  0  0  0  0  0  0  0  0  0  0  0
   -9.1940   12.5350   66.4320 C   0  0  0  0  0  0  0  0  0  0  0  0
   -8.2310   12.1080   67.2590 C   0  0  0  0  0  0  0  0  0  0  0  0
   -9.8420   11.5840   65.4730 C   0  0  0  0  0  0  0  0  0  0  0  0
   -7.6770   12.9290   68.2100 O   0  0  0  0  0  0  0  0  0  0  0  0
  -10.7490   12.2550   64.4730 C   0  0  0  0  0  0  0  0  0  0  0  0
   -9.8120    9.9140   65.4450 S   0  0  0  0  0  0  0  0  0  0  0  0
  -11.4090   13.5370   64.8870 C   0  0  0  0  0  0  0  0  0  0  0  0
  -10.8430   11.9010   63.3120 O   0  0  0  0  0  0  0  0  0  0  0  0
  -12.5850   13.7890   64.6700 O   0  0  0  0  0  0  0  0  0  0  0  0
  -12.2530   15.5100   73.8020 C   0  0  0  0  0  0  0  0  0  0  0  0
  -12.1400   16.8360   74.3300 O   0  0  0  0  0  0  0  0  0  0  0  0
  -13.3940   16.1310   74.4130 O   0  0  0  0  0  0  0  0  0  0  0  0
  1 40  1  0  0  0  0
  1  2  2  0  0  0  0
  1  6  1  0  0  0  0
  2  3  1  0  0  0  0
  2 17  1  0  0  0  0
  3  4  1  0  0  0  0
  4  5  2  0  0  0  0
  4 15  1  0  0  0  0
  5  6  1  0  0  0  0
  5  7  1  0  0  0  0
  7  8  1  0  0  0  0
  7 13  1  0  0  0  0
  8  9  1  0  0  0  0
  9 10  2  0  0  0  0
  9 11  1  0  0  0  0
 11 12  1  0  0  0  0
 12 13  1  0  0  0  0
 12 16  1  0  0  0  0
 13 14  2  0  0  0  0
 14 15  1  0  0  0  0
 14 52  1  0  0  0  0
 17 18  2  0  0  0  0
 17 23  1  0  0  0  0
 18 19  1  0  0  0  0
 19 20  1  0  0  0  0
 19 21  2  0  0  0  0
 21 22  1  0  0  0  0
 22 23  2  0  0  0  0
 22 24  1  0  0  0  0
 23 25  1  0  0  0  0
 24 28  2  0  0  0  0
 24 34  1  0  0  0  0
 25 26  2  0  0  0  0
 26 27  1  0  0  0  0
 26 28  1  0  0  0  0
 27 29  2  0  0  0  0
 27 30  1  0  0  0  0
 28 33  1  0  0  0  0
 30 31  2  0  0  0  0
 30 32  1  0  0  0  0
 32 33  1  0  0  0  0
 32 35  1  0  0  0  0
 35 36  1  0  0  0  0
 35 37  1  0  0  0  0
 35 38  1  0  0  0  0
 37 38  1  0  0  0  0
 38 39  2  0  0  0  0
 40 41  1  0  0  0  0
 41 42  1  0  0  0  0
 41 49  1  0  0  0  0
 42 43  1  0  0  0  0
 43 44  2  0  0  0  0
 43 45  1  0  0  0  0
 44 46  1  0  0  0  0
 45 47  1  0  0  0  0
 45 48  2  0  0  0  0
 47 49  1  0  0  0  0
 47 50  2  0  0  0  0
 49 51  2  0  0  0  0
 52 53  1  0  0  0  0
 52 54  1  0  0  0  0
 53 54  1  0  0  0  0
M  CHG  2  15   1  19   1
M  END