
 OpenBabel11262000423D

 55 63  0  0  1  0  0  0  0  0999 V2000
   -9.4270   15.5120   67.7960 C   0  0  0  0  0  0  0  0  0  0  0  0
   -9.4270   16.7090   68.4310 C   0  0  0  0  0  0  0  0  0  0  0  0
  -10.0080   16.9190   69.6930 O   0  0  0  0  0  0  0  0  0  0  0  0
  -10.7940   15.9230   70.2500 C   0  0  0  0  0  0  0  0  0  0  0  0
  -10.8460   14.6680   69.7010 C   0  0  0  0  0  0  0  0  0  0  0  0
  -10.0890   14.3340   68.4570 C   0  0  0  0  0  0  0  0  0  0  0  0
  -11.6700   13.7290   70.3220 C   0  0  0  0  0  0  0  0  0  0  0  0
  -11.6540   12.4500   69.7680 O   0  0  0  0  0  0  0  0  0  0  0  0
  -12.4920   11.4800   70.2440 C   0  0  0  0  0  0  0  0  0  0  0  0
  -12.4680   10.3170   69.6980 N   0  0  0  0  0  0  0  0  0  0  0  0
  -13.3220   11.7570   71.2590 O   0  0  0  0  0  0  0  0  0  0  0  0
  -13.3880   12.9690   71.8530 C   0  0  0  0  0  0  0  0  0  0  0  0
  -14.2240   13.1610   72.7220 O   0  0  0  0  0  0  0  0  0  0  0  0
  -12.4780   14.0360   71.3990 C   0  0  0  0  0  0  0  0  0  0  0  0
  -12.4070   15.3430   71.9100 C   0  0  0  0  0  0  0  0  0  0  0  0
  -11.5430   16.2610   71.3300 N   0  0  0  0  0  0  0  0  0  0  0  0
   -8.8940   17.9590   67.8280 C   0  0  0  0  0  0  0  0  0  0  0  0
   -9.7830   18.6540   66.9960 C   0  0  0  0  0  0  0  0  0  0  0  0
   -9.3810   19.8510   66.4530 C   0  0  0  0  0  0  0  0  0  0  0  0
  -10.2410   20.5290   65.6800 F   0  0  0  0  0  0  0  0  0  0  0  0
   -8.1780   20.4000   66.6660 N   0  0  0  0  0  0  0  0  0  0  0  0
   -7.3050   19.7560   67.4560 C   0  0  0  0  0  0  0  0  0  0  0  0
   -7.5920   18.5090   68.0790 C   0  0  0  0  0  0  0  0  0  0  0  0
   -6.0750   20.3740   67.6880 C   0  0  0  0  0  0  0  0  0  0  0  0
   -6.5630   17.9420   68.8950 C   0  0  0  0  0  0  0  0  0  0  0  0
   -6.8030   16.7320   69.5060 O   0  0  0  0  0  0  0  0  0  0  0  0
   -5.3300   18.5930   69.0920 C   0  0  0  0  0  0  0  0  0  0  0  0
   -4.2680   18.0000   69.9130 C   0  0  0  0  0  0  0  0  0  0  0  0
   -5.0970   19.8300   68.5190 C   0  0  0  0  0  0  0  0  0  0  0  0
   -4.4250   16.9180   70.4640 O   0  0  0  0  0  0  0  0  0  0  0  0
   -2.9920   18.7860   70.0710 C   0  0  0  0  0  0  0  0  0  0  0  0
   -1.9490   18.2370   70.3890 O   0  0  0  0  0  0  0  0  0  0  0  0
   -3.1710   20.2650   69.8700 C   0  0  0  0  0  0  0  0  0  0  0  0
   -3.9660   20.5780   68.7170 O   0  0  0  0  0  0  0  0  0  0  0  0
   -5.8250   21.5690   67.1200 F   0  0  0  0  0  0  0  0  0  0  0  0
   -3.7260   20.9230   71.1020 C   0  0  0  0  0  0  0  0  0  0  0  0
   -4.9720   21.6390   70.9670 O   0  0  0  0  0  0  0  0  0  0  0  0
   -3.6310   20.1670   72.3170 O   0  0  0  0  0  0  0  0  0  0  0  0
   -2.8450   21.2620   72.2170 C   0  0  0  0  0  0  0  0  0  0  0  0
   -1.6550   21.3670   72.3100 O   0  0  0  0  0  0  0  0  0  0  0  0
   -8.8950   15.3460   66.5100 O   0  0  0  0  0  0  0  0  0  0  0  0
   -9.6530   14.5400   65.5830 C   0  0  0  0  0  0  0  0  0  0  0  0
  -10.1150   13.3290   66.2000 O   0  0  0  0  0  0  0  0  0  0  0  0
  -10.6960   12.4520   65.2950 C   0  0  0  0  0  0  0  0  0  0  0  0
  -10.4520   11.1360   65.2980 C   0  0  0  0  0  0  0  0  0  0  0  0
  -11.6300   12.9610   64.2580 C   0  0  0  0  0  0  0  0  0  0  0  0
   -9.5770   10.5220   66.1540 O   0  0  0  0  0  0  0  0  0  0  0  0
  -11.9090   14.4360   64.4000 C   0  0  0  0  0  0  0  0  0  0  0  0
  -12.0760   12.2980   63.3360 O   0  0  0  0  0  0  0  0  0  0  0  0
  -10.8050   15.3270   64.9370 C   0  0  0  0  0  0  0  0  0  0  0  0
  -13.0000   14.8850   64.0860 O   0  0  0  0  0  0  0  0  0  0  0  0
  -10.8110   16.5280   64.7080 O   0  0  0  0  0  0  0  0  0  0  0  0
  -13.2630   15.8980   73.0430 C   0  0  0  0  0  0  0  0  0  0  0  0
  -12.9700   15.6040   74.4160 O   0  0  0  0  0  0  0  0  0  0  0  0
  -12.6450   16.8940   73.8860 O   0  0  0  0  0  0  0  0  0  0  0  0
  1 41  1  0  0  0  0
  1  2  2  0  0  0  0
  1  6  1  0  0  0  0
  2  3  1  0  0  0  0
  2 17  1  0  0  0  0
  3  4  1  0  0  0  0
  4  5  2  0  0  0  0
  4 16  1  0  0  0  0
  5  6  1  0  0  0  0
  5  7  1  0  0  0  0
  7  8  1  0  0  0  0
  7 14  2  0  0  0  0
  8  9  1  0  0  0  0
  9 10  2  0  0  0  0
  9 11  1  0  0  0  0
 11 12  1  0  0  0  0
 12 13  2  0  0  0  0
 12 14  1  0  0  0  0
 14 15  1  0  0  0  0
 15 16  2  0  0  0  0
 15 53  1  0  0  0  0
 17 18  2  0  0  0  0
 17 23  1  0  0  0  0
 18 19  1  0  0  0  0
 19 20  1  0  0  0  0
 19 21  2  0  0  0  0
 21 22  1  0  0  0  0
 22 23  2  0  0  0  0
 22 24  1  0  0  0  0
 23 25  1  0  0  0  0
 24 29  2  0  0  0  0
 24 35  1  0  0  0  0
 25 26  1  0  0  0  0
 25 27  2  0  0  0  0
 27 28  1  0  0  0  0
 27 29  1  0  0  0  0
 28 30  2  0  0  0  0
 28 31  1  0  0  0  0
 29 34  1  0  0  0  0
 31 32  2  0  0  0  0
 31 33  1  0  0  0  0
 33 34  1  0  0  0  0
 33 36  1  0  0  0  0
 36 37  1  0  0  0  0
 36 38  1  0  0  0  0
 36 39  1  0  0  0  0
 38 39  1  0  0  0  0
 39 40  2  0  0  0  0
 41 42  1  0  0  0  0
 42 43  1  0  0  0  0
 42 50  1  0  0  0  0
 43 44  1  0  0  0  0
 44 45  2  0  0  0  0
 44 46  1  0  0  0  0
 45 47  1  0  0  0  0
 46 48  1  0  0  0  0
 46 49  2  0  0  0  0
 48 50  1  0  0  0  0
 48 51  2  0  0  0  0
 50 52  2  0  0  0  0
 53 54  1  0  0  0  0
 53 55  1  0  0  0  0
 54 55  1  0  0  0  0
M  END
