
 OpenBabel05202119563D

 55 66  0  0  1  0  0  0  0  0999 V2000
  -11.3100    9.2350   70.4310 C   0  0  0  0  0  0  0  0  0  0  0  0
  -12.2400    9.5990   71.4450 C   0  0  0  0  0  0  0  0  0  0  0  0
  -12.8380    8.6590   72.4660 C   0  0  0  0  0  0  0  0  0  0  0  0
  -12.7020   10.9430   71.5520 C   0  0  0  0  0  0  0  0  0  0  0  0
  -12.4050   11.9560   70.6280 C   0  0  0  0  0  0  0  0  0  0  0  0
  -11.5920   11.5880   69.5310 C   0  0  0  0  0  0  0  0  0  0  0  0
  -10.9910   10.2990   69.5270 C   0  0  0  0  0  0  0  0  0  0  0  0
   -9.7450   10.2920   68.7290 C   0  0  0  0  0  0  0  0  0  0  0  0
   -8.7040    9.9290   69.2760 O   0  0  0  0  0  0  0  0  0  0  0  0
   -9.8290   10.8430   67.2800 C   0  0  0  0  0  0  0  0  0  0  0  0
  -10.7240   12.1060   67.1850 C   0  0  0  0  0  0  0  0  0  0  0  0
  -11.3300   12.5300   68.5080 C   0  0  0  0  0  0  0  0  0  0  0  0
  -11.7450   13.8380   68.6670 C   0  0  0  0  0  0  0  0  0  0  0  0
  -12.4680   14.2110   69.7920 C   0  0  0  0  0  0  0  0  0  0  0  0
  -12.8590   13.3030   70.7950 C   0  0  0  0  0  0  0  0  0  0  0  0
  -11.4540   14.8550   67.8220 O   0  0  0  0  0  0  0  0  0  0  0  0
  -10.8200   14.5690   66.5780 C   0  0  0  0  0  0  0  0  0  0  0  0
  -10.0130   13.2670   66.4830 C   0  0  0  0  0  0  0  0  0  0  0  0
   -8.6030   13.3550   66.9940 C   0  0  0  0  0  0  0  0  0  0  0  0
   -7.8950   12.1590   67.1340 C   0  0  0  0  0  0  0  0  0  0  0  0
   -8.5040   10.9940   66.7680 O   0  0  0  0  0  0  0  0  0  0  0  0
   -6.5620   12.1380   67.5450 C   0  0  0  0  0  0  0  0  0  0  0  0
   -5.8080   10.8530   67.7280 C   0  0  0  0  0  0  0  0  0  0  0  0
   -5.9530   13.3620   67.8360 C   0  0  0  0  0  0  0  0  0  0  0  0
   -6.6460   14.5730   67.7240 C   0  0  0  0  0  0  0  0  0  0  0  0
   -7.9770   14.5740   67.2700 C   0  0  0  0  0  0  0  0  0  0  0  0
   -8.6120   15.7990   67.0700 C   0  0  0  0  0  0  0  0  0  0  0  0
   -9.9340   15.8130   66.4020 C   0  0  0  0  0  0  0  0  0  0  0  0
  -10.3080   16.8060   65.7780 O   0  0  0  0  0  0  0  0  0  0  0  0
   -7.9930   16.9940   67.4610 C   0  0  0  0  0  0  0  0  0  0  0  0
   -6.7190   16.9890   68.0590 C   0  0  0  0  0  0  0  0  0  0  0  0
   -6.0180   15.7780   68.0700 C   0  0  0  0  0  0  0  0  0  0  0  0
   -4.6970   15.7570   68.4130 O   0  0  0  0  0  0  0  0  0  0  0  0
   -4.0140   14.5890   67.9720 C   0  0  0  0  0  0  0  0  0  0  0  0
   -4.6500   13.3470   68.2640 O   0  0  0  0  0  0  0  0  0  0  0  0
  -11.8200   14.5610   65.5580 O   0  0  0  0  0  0  0  0  0  0  0  0
  -10.4410    9.8650   66.4390 O   0  0  0  0  0  0  0  0  0  0  0  0
  -10.7020    7.8430   70.2910 C   0  0  0  0  0  0  0  0  0  0  0  0
   -9.8340    7.2740   71.2560 C   0  0  0  0  0  0  0  0  0  0  0  0
   -9.2940    5.9800   71.1580 C   0  0  0  0  0  0  0  0  0  0  0  0
   -9.4710    7.9690   72.3390 F   0  0  0  0  0  0  0  0  0  0  0  0
   -9.5560    5.2030   70.0430 C   0  0  0  0  0  0  0  0  0  0  0  0
  -10.3790    5.7260   69.0650 C   0  0  0  0  0  0  0  0  0  0  0  0
  -10.6340    5.0010   67.9680 F   0  0  0  0  0  0  0  0  0  0  0  0
  -10.9630    6.9960   69.1970 C   0  0  0  0  0  0  0  0  0  0  0  0
  -13.6240   13.8600   72.1070 C   0  0  0  0  0  0  0  0  0  0  0  0
  -14.5200   15.3850   71.8610 C   0  0  0  0  0  0  0  0  0  0  0  0
  -13.5410   15.5620   72.5990 C   0  0  0  0  0  0  0  0  0  0  0  0
  -12.5690   14.9390   73.1050 C   0  0  0  0  0  0  0  0  0  0  0  0
   -6.1030   18.5920   68.5970 S   0  0  0  0  0  0  0  0  0  0  0  0
   -7.3590   19.8350   68.2580 C   0  0  0  0  0  0  0  0  0  0  0  0
   -7.7170   20.1310   66.8070 C   0  0  0  0  0  0  0  0  0  0  0  0
   -6.5210   20.4580   65.9350 C   0  0  0  0  0  0  0  0  0  0  0  0
   -5.5460   19.2890   65.9080 C   0  0  0  0  0  0  0  0  0  0  0  0
   -4.9370   19.0210   67.2740 C   0  0  0  0  0  0  0  0  0  0  0  0
  1 38  1  0  0  0  0
  1  2  2  0  0  0  0
  1  7  1  0  0  0  0
  2  4  1  0  0  0  0
  2  3  1  0  0  0  0
  4  5  2  0  0  0  0
  5  6  1  0  0  0  0
  5 15  1  0  0  0  0
  6  7  2  0  0  0  0
  6 12  1  0  0  0  0
  7  8  1  0  0  0  0
  8 10  1  0  0  0  0
  8  9  2  0  0  0  0
 10 11  1  0  0  0  0
 10 21  1  0  0  0  0
 10 37  1  0  0  0  0
 11 12  1  0  0  0  0
 11 18  1  0  0  0  0
 12 13  2  0  0  0  0
 13 14  1  0  0  0  0
 13 16  1  0  0  0  0
 14 15  2  0  0  0  0
 15 46  1  0  0  0  0
 16 17  1  0  0  0  0
 17 18  1  0  0  0  0
 17 28  1  0  0  0  0
 17 36  1  0  0  0  0
 18 19  1  0  0  0  0
 19 20  2  0  0  0  0
 19 26  1  0  0  0  0
 20 21  1  0  0  0  0
 20 22  1  0  0  0  0
 22 24  2  0  0  0  0
 22 23  1  0  0  0  0
 24 25  1  0  0  0  0
 24 35  1  0  0  0  0
 25 26  2  0  0  0  0
 25 32  1  0  0  0  0
 26 27  1  0  0  0  0
 27 28  1  0  0  0  0
 27 30  2  0  0  0  0
 28 29  2  0  0  0  0
 30 31  1  0  0  0  0
 31 32  2  0  0  0  0
 31 50  1  0  0  0  0
 32 33  1  0  0  0  0
 33 34  1  0  0  0  0
 34 35  1  0  0  0  0
 38 39  1  0  0  0  0
 38 45  2  0  0  0  0
 39 40  2  0  0  0  0
 39 41  1  0  0  0  0
 40 42  1  0  0  0  0
 42 43  2  0  0  0  0
 43 44  1  0  0  0  0
 43 45  1  0  0  0  0
 46 47  1  0  0  0  0
 46 49  1  0  0  0  0
 47 48  2  0  0  0  0
 48 49  2  0  0  0  0
 50 51  1  0  0  0  0
 50 55  1  0  0  0  0
 51 52  1  0  0  0  0
 52 53  1  0  0  0  0
 53 54  1  0  0  0  0
 54 55  1  0  0  0  0
M  CHG  1  50   1
M  END