
 OpenBabel11212021123D

 53 61  0  0  1  0  0  0  0  0999 V2000
  -10.3640   15.4160   67.4610 C   0  0  0  0  0  0  0  0  0  0  0  0
  -10.4380   16.6250   68.0520 C   0  0  0  0  0  0  0  0  0  0  0  0
  -11.1400   16.8640   69.2270 O   0  0  0  0  0  0  0  0  0  0  0  0
  -11.6740   15.7820   69.9190 C   0  0  0  0  0  0  0  0  0  0  0  0
  -11.6380   14.5390   69.4110 C   0  0  0  0  0  0  0  0  0  0  0  0
  -11.0640   14.2240   68.0720 C   0  0  0  0  0  0  0  0  0  0  0  0
  -12.1700   13.4250   70.2430 C   0  0  0  0  0  0  0  0  0  0  0  0
  -12.1300   12.2100   69.8070 N   0  0  0  0  0  0  0  0  0  0  0  0
  -12.6140   11.1930   70.6090 C   0  0  0  0  0  0  0  0  0  0  0  0
  -12.5450   10.0480   70.1820 O   0  0  0  0  0  0  0  0  0  0  0  0
  -13.1600   11.4060   71.8600 N   0  0  0  0  0  0  0  0  0  0  0  0
  -13.2080   12.6060   72.3210 C   0  0  0  0  0  0  0  0  0  0  0  0
  -12.7170   13.7650   71.5750 C   0  0  0  0  0  0  0  0  0  0  0  0
  -12.7280   15.0480   71.9880 C   0  0  0  0  0  0  0  0  0  0  0  0
  -12.2140   16.0340   71.1530 N   0  0  0  0  0  0  0  0  0  0  0  0
   -9.6800   17.7840   67.5600 C   0  0  0  0  0  0  0  0  0  0  0  0
  -10.3720   18.6960   66.7750 C   0  0  0  0  0  0  0  0  0  0  0  0
   -9.7660   19.7920   66.3220 N   0  0  0  0  0  0  0  0  0  0  0  0
  -10.4620   20.6590   65.5630 F   0  0  0  0  0  0  0  0  0  0  0  0
   -8.5060   20.0680   66.5910 N   0  0  0  0  0  0  0  0  0  0  0  0
   -7.7810   19.2450   67.3650 C   0  0  0  0  0  0  0  0  0  0  0  0
   -8.3370   18.0550   67.8770 C   0  0  0  0  0  0  0  0  0  0  0  0
   -6.4550   19.5640   67.7040 C   0  0  0  0  0  0  0  0  0  0  0  0
   -7.5390   17.2120   68.6850 C   0  0  0  0  0  0  0  0  0  0  0  0
   -6.2290   17.5690   69.0230 C   0  0  0  0  0  0  0  0  0  0  0  0
   -5.4370   16.7110   69.9110 C   0  0  0  0  0  0  0  0  0  0  0  0
   -5.6850   18.7580   68.5600 C   0  0  0  0  0  0  0  0  0  0  0  0
   -5.8510   15.6270   70.2860 O   0  0  0  0  0  0  0  0  0  0  0  0
   -4.0910   17.2390   70.3470 C   0  0  0  0  0  0  0  0  0  0  0  0
   -3.2350   16.4870   70.7880 O   0  0  0  0  0  0  0  0  0  0  0  0
   -3.9350   18.7320   70.1960 C   0  0  0  0  0  0  0  0  0  0  0  0
   -4.4520   19.2140   68.9430 O   0  0  0  0  0  0  0  0  0  0  0  0
   -5.6960   21.1890   67.0310 Br  0  0  0  0  0  0  0  0  0  0  0  0
   -4.4530   19.4870   71.3990 C   0  0  0  0  0  0  0  0  0  0  0  0
   -5.4900   18.8330   72.1540 O   0  0  0  0  0  0  0  0  0  0  0  0
   -3.4540   20.1420   72.1980 O   0  0  0  0  0  0  0  0  0  0  0  0
   -4.3490   20.9230   71.5850 C   0  0  0  0  0  0  0  0  0  0  0  0
   -4.2240   21.8510   70.8050 O   0  0  0  0  0  0  0  0  0  0  0  0
   -9.5490   15.2250   66.3540 O   0  0  0  0  0  0  0  0  0  0  0  0
   -9.9620   14.2040   65.4300 C   0  0  0  0  0  0  0  0  0  0  0  0
  -10.1010   12.9500   66.0870 O   0  0  0  0  0  0  0  0  0  0  0  0
  -10.4910   11.9040   65.2680 C   0  0  0  0  0  0  0  0  0  0  0  0
  -10.0950   10.6550   65.5390 C   0  0  0  0  0  0  0  0  0  0  0  0
  -11.4010   12.1180   64.1010 C   0  0  0  0  0  0  0  0  0  0  0  0
   -9.2690   10.3600   66.5930 O   0  0  0  0  0  0  0  0  0  0  0  0
  -11.8200   13.5620   63.8970 C   0  0  0  0  0  0  0  0  0  0  0  0
  -11.7760   11.2300   63.3570 O   0  0  0  0  0  0  0  0  0  0  0  0
  -11.3010   14.6050   64.8500 C   0  0  0  0  0  0  0  0  0  0  0  0
  -12.5120   13.8960   62.9500 O   0  0  0  0  0  0  0  0  0  0  0  0
  -11.9170   15.6320   65.0920 O   0  0  0  0  0  0  0  0  0  0  0  0
  -13.2400   15.5120   73.3000 C   0  0  0  0  0  0  0  0  0  0  0  0
  -12.5370   15.2340   74.5190 O   0  0  0  0  0  0  0  0  0  0  0  0
  -12.6040   16.5840   74.0210 O   0  0  0  0  0  0  0  0  0  0  0  0
  1 39  1  0  0  0  0
  1  2  2  0  0  0  0
  1  6  1  0  0  0  0
  2  3  1  0  0  0  0
  2 16  1  0  0  0  0
  3  4  1  0  0  0  0
  4  5  2  0  0  0  0
  4 15  1  0  0  0  0
  5  6  1  0  0  0  0
  5  7  1  0  0  0  0
  7  8  2  0  0  0  0
  7 13  1  0  0  0  0
  8  9  1  0  0  0  0
  9 10  2  0  0  0  0
  9 11  1  0  0  0  0
 11 12  2  0  0  0  0
 12 13  1  0  0  0  0
 13 14  2  0  0  0  0
 14 15  1  0  0  0  0
 14 51  1  0  0  0  0
 16 17  2  0  0  0  0
 16 22  1  0  0  0  0
 17 18  1  0  0  0  0
 18 19  1  0  0  0  0
 18 20  2  0  0  0  0
 20 21  1  0  0  0  0
 21 22  2  0  0  0  0
 21 23  1  0  0  0  0
 22 24  1  0  0  0  0
 23 27  2  0  0  0  0
 23 33  1  0  0  0  0
 24 25  2  0  0  0  0
 25 26  1  0  0  0  0
 25 27  1  0  0  0  0
 26 28  2  0  0  0  0
 26 29  1  0  0  0  0
 27 32  1  0  0  0  0
 29 30  2  0  0  0  0
 29 31  1  0  0  0  0
 31 32  1  0  0  0  0
 31 34  1  0  0  0  0
 34 35  1  0  0  0  0
 34 36  1  0  0  0  0
 34 37  1  0  0  0  0
 36 37  1  0  0  0  0
 37 38  2  0  0  0  0
 39 40  1  0  0  0  0
 40 41  1  0  0  0  0
 40 48  1  0  0  0  0
 41 42  1  0  0  0  0
 42 43  2  0  0  0  0
 42 44  1  0  0  0  0
 43 45  1  0  0  0  0
 44 46  1  0  0  0  0
 44 47  2  0  0  0  0
 46 48  1  0  0  0  0
 46 49  2  0  0  0  0
 48 50  2  0  0  0  0
 51 52  1  0  0  0  0
 51 53  1  0  0  0  0
 52 53  1  0  0  0  0
M  CHG  1  18   1
M  END