
 OpenBabel11222000363D

 55 63  0  0  1  0  0  0  0  0999 V2000
   -9.7380   17.8840   67.5180 C   0  0  0  0  0  0  0  0  0  0  0  0
  -10.2840   18.6670   66.4980 C   0  0  0  0  0  0  0  0  0  0  0  0
   -9.5970   19.6660   65.9400 N   0  0  0  0  0  0  0  0  0  0  0  0
  -10.1750   20.3910   64.9610 F   0  0  0  0  0  0  0  0  0  0  0  0
   -8.3660   19.9650   66.2940 N   0  0  0  0  0  0  0  0  0  0  0  0
   -7.7290   19.2380   67.2160 C   0  0  0  0  0  0  0  0  0  0  0  0
   -8.3800   18.1630   67.8650 C   0  0  0  0  0  0  0  0  0  0  0  0
   -7.6100   17.4280   68.7950 C   0  0  0  0  0  0  0  0  0  0  0  0
   -6.2520   17.6810   69.0290 C   0  0  0  0  0  0  0  0  0  0  0  0
   -5.4890   16.7250   69.8350 C   0  0  0  0  0  0  0  0  0  0  0  0
   -6.0130   15.6720   70.1760 O   0  0  0  0  0  0  0  0  0  0  0  0
   -4.0440   17.0640   70.1220 C   0  0  0  0  0  0  0  0  0  0  0  0
   -3.3180   16.2370   70.6530 O   0  0  0  0  0  0  0  0  0  0  0  0
   -3.6420   18.4800   69.7610 C   0  0  0  0  0  0  0  0  0  0  0  0
   -4.3150   19.0660   68.6360 O   0  0  0  0  0  0  0  0  0  0  0  0
   -5.6300   18.7550   68.4340 C   0  0  0  0  0  0  0  0  0  0  0  0
   -6.3810   19.5320   67.5330 C   0  0  0  0  0  0  0  0  0  0  0  0
   -5.7520   20.6490   66.8820 C   0  0  0  0  0  0  0  0  0  0  0  0
   -5.0510   21.9560   66.0700 S   0  0  0  0  0  0  0  0  0  0  0  0
  -10.5740   16.7710   68.1130 C   0  0  0  0  0  0  0  0  0  0  0  0
  -11.1900   15.7990   67.3950 C   0  0  0  0  0  0  0  0  0  0  0  0
  -11.9010   14.6590   68.0890 C   0  0  0  0  0  0  0  0  0  0  0  0
  -11.9260   14.7920   69.5830 C   0  0  0  0  0  0  0  0  0  0  0  0
  -11.3870   15.8450   70.2180 C   0  0  0  0  0  0  0  0  0  0  0  0
  -12.6330   13.6980   70.3270 C   0  0  0  0  0  0  0  0  0  0  0  0
  -10.6550   16.7960   69.5130 O   0  0  0  0  0  0  0  0  0  0  0  0
  -11.5320   16.0170   71.5820 O   0  0  0  0  0  0  0  0  0  0  0  0
  -12.2590   15.1070   72.3480 C   0  0  0  0  0  0  0  0  0  0  0  0
  -12.7660   13.9940   71.7710 C   0  0  0  0  0  0  0  0  0  0  0  0
  -13.5240   12.8820   72.4040 C   0  0  0  0  0  0  0  0  0  0  0  0
  -13.2860   11.6270   71.7730 O   0  0  0  0  0  0  0  0  0  0  0  0
  -14.8830   13.2320   72.2340 O   0  0  0  0  0  0  0  0  0  0  0  0
  -12.2830   11.4260   70.8830 C   0  0  0  0  0  0  0  0  0  0  0  0
  -11.8270   12.5380   70.2420 O   0  0  0  0  0  0  0  0  0  0  0  0
  -11.8160   10.3230   70.6530 O   0  0  0  0  0  0  0  0  0  0  0  0
  -11.1120   15.7580   66.0100 O   0  0  0  0  0  0  0  0  0  0  0  0
  -10.6710   14.5420   65.3490 C   0  0  0  0  0  0  0  0  0  0  0  0
  -10.3420   13.5610   66.3170 O   0  0  0  0  0  0  0  0  0  0  0  0
   -9.9870   12.3440   65.7620 C   0  0  0  0  0  0  0  0  0  0  0  0
   -8.9240   11.6710   66.2150 C   0  0  0  0  0  0  0  0  0  0  0  0
  -10.8160   11.7430   64.6810 C   0  0  0  0  0  0  0  0  0  0  0  0
   -8.0990   12.1710   67.1920 O   0  0  0  0  0  0  0  0  0  0  0  0
  -11.9640   12.6350   64.2610 C   0  0  0  0  0  0  0  0  0  0  0  0
  -10.5950   10.6690   64.1530 O   0  0  0  0  0  0  0  0  0  0  0  0
  -11.8350   14.1300   64.4540 C   0  0  0  0  0  0  0  0  0  0  0  0
  -13.0100   12.1630   63.8490 O   0  0  0  0  0  0  0  0  0  0  0  0
  -12.6220   14.9190   63.9460 O   0  0  0  0  0  0  0  0  0  0  0  0
  -12.4260   15.4740   73.7790 C   0  0  0  0  0  0  0  0  0  0  0  0
  -12.1150   16.8030   74.2300 O   0  0  0  0  0  0  0  0  0  0  0  0
  -13.4840   16.3630   74.1750 O   0  0  0  0  0  0  0  0  0  0  0  0
   -3.7710   19.3700   70.9530 C   0  0  0  0  0  0  0  0  0  0  0  0
   -4.7990   19.0070   71.9130 O   0  0  0  0  0  0  0  0  0  0  0  0
   -2.5380   19.8240   71.5010 O   0  0  0  0  0  0  0  0  0  0  0  0
   -3.3440   20.7770   70.9840 C   0  0  0  0  0  0  0  0  0  0  0  0
   -3.8800   21.7110   71.5220 O   0  0  0  0  0  0  0  0  0  0  0  0
  1 20  1  0  0  0  0
  1  2  2  0  0  0  0
  1  7  1  0  0  0  0
  2  3  1  0  0  0  0
  3  4  1  0  0  0  0
  3  5  2  0  0  0  0
  5  6  1  0  0  0  0
  6  7  2  0  0  0  0
  6 17  1  0  0  0  0
  7  8  1  0  0  0  0
  8  9  2  0  0  0  0
  9 10  1  0  0  0  0
  9 16  1  0  0  0  0
 10 11  2  0  0  0  0
 10 12  1  0  0  0  0
 12 13  2  0  0  0  0
 12 14  1  0  0  0  0
 14 15  1  0  0  0  0
 14 51  1  0  0  0  0
 15 16  1  0  0  0  0
 16 17  2  0  0  0  0
 17 18  1  0  0  0  0
 18 19  3  0  0  0  0
 20 21  2  0  0  0  0
 20 26  1  0  0  0  0
 21 36  1  0  0  0  0
 21 22  1  0  0  0  0
 22 23  1  0  0  0  0
 23 24  2  0  0  0  0
 23 25  1  0  0  0  0
 24 26  1  0  0  0  0
 24 27  1  0  0  0  0
 25 34  1  0  0  0  0
 25 29  1  0  0  0  0
 27 28  1  0  0  0  0
 28 29  2  0  0  0  0
 28 48  1  0  0  0  0
 29 30  1  0  0  0  0
 30 31  1  0  0  0  0
 30 32  1  0  0  0  0
 31 33  1  0  0  0  0
 33 34  1  0  0  0  0
 33 35  2  0  0  0  0
 36 37  1  0  0  0  0
 37 38  1  0  0  0  0
 37 45  1  0  0  0  0
 38 39  1  0  0  0  0
 39 40  2  0  0  0  0
 39 41  1  0  0  0  0
 40 42  1  0  0  0  0
 41 43  1  0  0  0  0
 41 44  2  0  0  0  0
 43 45  1  0  0  0  0
 43 46  2  0  0  0  0
 45 47  2  0  0  0  0
 48 49  1  0  0  0  0
 48 50  1  0  0  0  0
 49 50  1  0  0  0  0
 51 52  1  0  0  0  0
 51 53  1  0  0  0  0
 51 54  1  0  0  0  0
 53 54  1  0  0  0  0
 54 55  2  0  0  0  0
M  CHG  3  27   1   3   1  19   1
M  END