
 OpenBabel11222001363D

 54 63  0  0  1  0  0  0  0  0999 V2000
  -10.6560   15.3200   67.5210 C   0  0  0  0  0  0  0  0  0  0  0  0
  -10.2040   16.4450   68.1490 C   0  0  0  0  0  0  0  0  0  0  0  0
  -10.0840   16.4580   69.5810 O   0  0  0  0  0  0  0  0  0  0  0  0
  -10.8340   15.5350   70.3450 C   0  0  0  0  0  0  0  0  0  0  0  0
  -11.3380   14.4460   69.7480 C   0  0  0  0  0  0  0  0  0  0  0  0
  -10.9540   14.0910   68.3570 C   0  0  0  0  0  0  0  0  0  0  0  0
  -12.3870   13.5960   70.3950 C   0  0  0  0  0  0  0  0  0  0  0  0
  -11.9810   12.2520   70.4230 O   0  0  0  0  0  0  0  0  0  0  0  0
  -12.9730   11.3890   70.8040 C   0  0  0  0  0  0  0  0  0  0  0  0
  -12.9910   10.2350   70.4460 O   0  0  0  0  0  0  0  0  0  0  0  0
  -13.9640   11.9570   71.5460 O   0  0  0  0  0  0  0  0  0  0  0  0
  -13.7220   13.1110   72.3450 C   0  0  0  0  0  0  0  0  0  0  0  0
  -12.6450   13.9800   71.7920 C   0  0  0  0  0  0  0  0  0  0  0  0
  -11.9910   14.9930   72.4010 C   0  0  0  0  0  0  0  0  0  0  0  0
  -11.0740   15.7690   71.6880 O   0  0  0  0  0  0  0  0  0  0  0  0
  -14.8800   13.9280   72.2910 O   0  0  0  0  0  0  0  0  0  0  0  0
   -9.6960   17.7230   67.5000 C   0  0  0  0  0  0  0  0  0  0  0  0
  -10.5890   18.3750   66.6330 C   0  0  0  0  0  0  0  0  0  0  0  0
  -10.2560   19.5100   66.0060 N   0  0  0  0  0  0  0  0  0  0  0  0
   -9.0890   20.1000   66.1820 N   0  0  0  0  0  0  0  0  0  0  0  0
  -11.1420   20.0840   65.1660 F   0  0  0  0  0  0  0  0  0  0  0  0
   -8.1830   19.5650   67.0040 C   0  0  0  0  0  0  0  0  0  0  0  0
   -8.4120   18.3420   67.6800 C   0  0  0  0  0  0  0  0  0  0  0  0
   -6.9670   20.2450   67.2110 C   0  0  0  0  0  0  0  0  0  0  0  0
   -7.3350   17.8500   68.4820 C   0  0  0  0  0  0  0  0  0  0  0  0
   -6.1560   18.5830   68.7240 C   0  0  0  0  0  0  0  0  0  0  0  0
   -5.1250   18.1370   69.6830 C   0  0  0  0  0  0  0  0  0  0  0  0
   -5.9570   19.7930   68.0760 C   0  0  0  0  0  0  0  0  0  0  0  0
   -4.0650   19.1330   70.0240 C   0  0  0  0  0  0  0  0  0  0  0  0
   -4.9660   16.9540   70.1650 N   0  0  0  0  0  0  0  0  0  0  0  0
   -3.4380   19.1230   71.1650 O   0  0  0  0  0  0  0  0  0  0  0  0
   -3.6850   19.9840   68.8590 C   0  0  0  0  0  0  0  0  0  0  0  0
   -2.3240   19.9490   71.4080 O   0  0  0  0  0  0  0  0  0  0  0  0
   -2.0790   20.9390   70.6100 C   0  0  0  0  0  0  0  0  0  0  0  0
   -2.6780   21.0130   69.2390 C   0  0  0  0  0  0  0  0  0  0  0  0
   -3.0240   21.8670   70.2730 O   0  0  0  0  0  0  0  0  0  0  0  0
   -1.8220   21.5020   68.2060 O   0  0  0  0  0  0  0  0  0  0  0  0
   -4.8450   20.5910   68.2580 O   0  0  0  0  0  0  0  0  0  0  0  0
   -6.7620   21.4000   66.5570 F   0  0  0  0  0  0  0  0  0  0  0  0
  -10.8160   15.2120   66.1410 O   0  0  0  0  0  0  0  0  0  0  0  0
  -10.5690   13.9080   65.5460 C   0  0  0  0  0  0  0  0  0  0  0  0
  -10.2960   12.9190   66.5590 O   0  0  0  0  0  0  0  0  0  0  0  0
   -9.8260   11.7140   66.0410 C   0  0  0  0  0  0  0  0  0  0  0  0
   -8.9270   10.9790   66.7120 C   0  0  0  0  0  0  0  0  0  0  0  0
  -10.3580   11.1930   64.7450 C   0  0  0  0  0  0  0  0  0  0  0  0
   -8.3940   11.3720   67.9160 O   0  0  0  0  0  0  0  0  0  0  0  0
  -11.5270   12.0150   64.2110 C   0  0  0  0  0  0  0  0  0  0  0  0
   -9.9110   10.2290   64.1570 O   0  0  0  0  0  0  0  0  0  0  0  0
  -11.7950   13.3730   64.8300 C   0  0  0  0  0  0  0  0  0  0  0  0
  -12.2780   11.5970   63.3480 O   0  0  0  0  0  0  0  0  0  0  0  0
  -12.9100   13.8860   64.8420 O   0  0  0  0  0  0  0  0  0  0  0  0
  -12.2180   15.4020   73.8110 C   0  0  0  0  0  0  0  0  0  0  0  0
  -12.0060   16.7680   74.2050 O   0  0  0  0  0  0  0  0  0  0  0  0
  -13.3410   16.2320   74.1460 O   0  0  0  0  0  0  0  0  0  0  0  0
  1 40  1  0  0  0  0
  1  2  2  0  0  0  0
  1  6  1  0  0  0  0
  2  3  1  0  0  0  0
  2 17  1  0  0  0  0
  3  4  1  0  0  0  0
  4  5  2  0  0  0  0
  4 15  1  0  0  0  0
  5  6  1  0  0  0  0
  5  7  1  0  0  0  0
  7  8  1  0  0  0  0
  7 13  1  0  0  0  0
  8  9  1  0  0  0  0
  9 10  2  0  0  0  0
  9 11  1  0  0  0  0
 11 12  1  0  0  0  0
 12 13  1  0  0  0  0
 12 16  1  0  0  0  0
 13 14  2  0  0  0  0
 14 15  1  0  0  0  0
 14 52  1  0  0  0  0
 17 18  2  0  0  0  0
 17 23  1  0  0  0  0
 18 19  1  0  0  0  0
 19 20  2  0  0  0  0
 19 21  1  0  0  0  0
 20 22  1  0  0  0  0
 22 23  2  0  0  0  0
 22 24  1  0  0  0  0
 23 25  1  0  0  0  0
 24 28  2  0  0  0  0
 24 39  1  0  0  0  0
 25 26  2  0  0  0  0
 26 27  1  0  0  0  0
 26 28  1  0  0  0  0
 27 29  1  0  0  0  0
 27 30  2  0  0  0  0
 28 38  1  0  0  0  0
 29 31  2  0  0  0  0
 29 32  1  0  0  0  0
 31 33  1  0  0  0  0
 32 35  1  0  0  0  0
 32 38  1  0  0  0  0
 33 34  2  0  0  0  0
 34 35  1  0  0  0  0
 34 36  1  0  0  0  0
 35 36  1  0  0  0  0
 35 37  1  0  0  0  0
 40 41  1  0  0  0  0
 41 42  1  0  0  0  0
 41 49  1  0  0  0  0
 42 43  1  0  0  0  0
 43 44  2  0  0  0  0
 43 45  1  0  0  0  0
 44 46  1  0  0  0  0
 45 47  1  0  0  0  0
 45 48  2  0  0  0  0
 47 49  1  0  0  0  0
 47 50  2  0  0  0  0
 49 51  2  0  0  0  0
 52 53  1  0  0  0  0
 52 54  1  0  0  0  0
 53 54  1  0  0  0  0
M  CHG  4  15   1  19   1  31   1  33   1
M  END