
 OpenBabel11242001073D

 54 62  0  0  1  0  0  0  0  0999 V2000
   -9.9510   15.5590   67.9010 C   0  0  0  0  0  0  0  0  0  0  0  0
   -9.9270   16.8050   68.4480 C   0  0  0  0  0  0  0  0  0  0  0  0
  -10.5360   17.0790   69.6850 O   0  0  0  0  0  0  0  0  0  0  0  0
  -11.2460   16.0930   70.3530 C   0  0  0  0  0  0  0  0  0  0  0  0
  -11.2820   14.7900   69.8930 C   0  0  0  0  0  0  0  0  0  0  0  0
  -10.6370   14.4190   68.6080 C   0  0  0  0  0  0  0  0  0  0  0  0
  -11.9820   13.8400   70.6330 C   0  0  0  0  0  0  0  0  0  0  0  0
  -12.0300   12.5350   70.1450 O   0  0  0  0  0  0  0  0  0  0  0  0
  -12.6460   11.4770   70.8120 C   0  0  0  0  0  0  0  0  0  0  0  0
  -12.6450   10.3540   70.3270 O   0  0  0  0  0  0  0  0  0  0  0  0
  -13.1820   11.7620   72.0190 O   0  0  0  0  0  0  0  0  0  0  0  0
  -13.4110   13.0850   72.4890 C   0  0  0  0  0  0  0  0  0  0  0  0
  -12.6400   14.1570   71.7930 C   0  0  0  0  0  0  0  0  0  0  0  0
  -12.6150   15.4940   72.2170 C   0  0  0  0  0  0  0  0  0  0  0  0
  -11.9120   16.3940   71.4820 N   0  0  0  0  0  0  0  0  0  0  0  0
  -14.7730   13.4180   72.3120 O   0  0  0  0  0  0  0  0  0  0  0  0
   -9.2550   18.0050   67.7970 C   0  0  0  0  0  0  0  0  0  0  0  0
   -9.9870   18.7600   66.8710 C   0  0  0  0  0  0  0  0  0  0  0  0
   -9.4940   19.8690   66.3130 N   0  0  0  0  0  0  0  0  0  0  0  0
  -10.2610   20.5670   65.4520 F   0  0  0  0  0  0  0  0  0  0  0  0
   -8.2780   20.2970   66.5480 N   0  0  0  0  0  0  0  0  0  0  0  0
   -7.4770   19.6000   67.3460 C   0  0  0  0  0  0  0  0  0  0  0  0
   -7.9030   18.4250   68.0140 C   0  0  0  0  0  0  0  0  0  0  0  0
   -6.1710   20.0630   67.4950 C   0  0  0  0  0  0  0  0  0  0  0  0
   -6.9270   17.7810   68.8270 C   0  0  0  0  0  0  0  0  0  0  0  0
   -5.6070   18.2580   68.9300 C   0  0  0  0  0  0  0  0  0  0  0  0
   -4.6180   17.5450   69.7420 C   0  0  0  0  0  0  0  0  0  0  0  0
   -5.2250   19.4110   68.2780 C   0  0  0  0  0  0  0  0  0  0  0  0
   -4.8660   16.4180   70.1460 O   0  0  0  0  0  0  0  0  0  0  0  0
   -3.3140   18.2680   70.0270 C   0  0  0  0  0  0  0  0  0  0  0  0
   -2.3830   17.6700   70.5420 O   0  0  0  0  0  0  0  0  0  0  0  0
   -3.3120   19.7370   69.6480 C   0  0  0  0  0  0  0  0  0  0  0  0
   -3.9900   19.9790   68.4000 O   0  0  0  0  0  0  0  0  0  0  0  0
   -5.8170   21.2050   66.8820 F   0  0  0  0  0  0  0  0  0  0  0  0
   -3.7820   20.6420   70.7750 C   0  0  0  0  0  0  0  0  0  0  0  0
   -4.9780   21.3830   70.5220 O   0  0  0  0  0  0  0  0  0  0  0  0
   -3.6900   20.0580   72.0950 O   0  0  0  0  0  0  0  0  0  0  0  0
   -2.9310   21.1590   71.8380 C   0  0  0  0  0  0  0  0  0  0  0  0
   -1.7370   21.3720   71.9140 O   0  0  0  0  0  0  0  0  0  0  0  0
   -9.3770   15.2940   66.6600 O   0  0  0  0  0  0  0  0  0  0  0  0
  -10.0630   14.4290   65.7200 C   0  0  0  0  0  0  0  0  0  0  0  0
  -10.7520   13.3860   66.3900 O   0  0  0  0  0  0  0  0  0  0  0  0
  -11.2360   12.4510   65.4950 C   0  0  0  0  0  0  0  0  0  0  0  0
  -10.9320   11.1540   65.6080 C   0  0  0  0  0  0  0  0  0  0  0  0
  -12.0780   12.9170   64.3580 C   0  0  0  0  0  0  0  0  0  0  0  0
  -10.0780   10.6680   66.5690 O   0  0  0  0  0  0  0  0  0  0  0  0
  -12.1310   14.4360   64.2450 C   0  0  0  0  0  0  0  0  0  0  0  0
  -12.6000   12.1770   63.5450 O   0  0  0  0  0  0  0  0  0  0  0  0
  -11.0610   15.2690   64.9380 C   0  0  0  0  0  0  0  0  0  0  0  0
  -13.0090   14.9870   63.6030 O   0  0  0  0  0  0  0  0  0  0  0  0
  -10.9880   16.4870   64.8350 O   0  0  0  0  0  0  0  0  0  0  0  0
  -13.2760   16.0050   73.4560 C   0  0  0  0  0  0  0  0  0  0  0  0
  -12.6710   15.6260   74.6970 O   0  0  0  0  0  0  0  0  0  0  0  0
  -12.5450   16.9790   74.2150 O   0  0  0  0  0  0  0  0  0  0  0  0
  1 40  1  0  0  0  0
  1  2  2  0  0  0  0
  1  6  1  0  0  0  0
  2  3  1  0  0  0  0
  2 17  1  0  0  0  0
  3  4  1  0  0  0  0
  4  5  2  0  0  0  0
  4 15  1  0  0  0  0
  5  6  1  0  0  0  0
  5  7  1  0  0  0  0
  7  8  1  0  0  0  0
  7 13  2  0  0  0  0
  8  9  1  0  0  0  0
  9 10  2  0  0  0  0
  9 11  1  0  0  0  0
 11 12  1  0  0  0  0
 12 13  1  0  0  0  0
 12 16  1  0  0  0  0
 13 14  1  0  0  0  0
 14 15  2  0  0  0  0
 14 52  1  0  0  0  0
 17 18  2  0  0  0  0
 17 23  1  0  0  0  0
 18 19  1  0  0  0  0
 19 20  1  0  0  0  0
 19 21  2  0  0  0  0
 21 22  1  0  0  0  0
 22 23  2  0  0  0  0
 22 24  1  0  0  0  0
 23 25  1  0  0  0  0
 24 28  2  0  0  0  0
 24 34  1  0  0  0  0
 25 26  2  0  0  0  0
 26 27  1  0  0  0  0
 26 28  1  0  0  0  0
 27 29  2  0  0  0  0
 27 30  1  0  0  0  0
 28 33  1  0  0  0  0
 30 31  2  0  0  0  0
 30 32  1  0  0  0  0
 32 33  1  0  0  0  0
 32 35  1  0  0  0  0
 35 36  1  0  0  0  0
 35 37  1  0  0  0  0
 35 38  1  0  0  0  0
 37 38  1  0  0  0  0
 38 39  2  0  0  0  0
 40 41  1  0  0  0  0
 41 42  1  0  0  0  0
 41 49  1  0  0  0  0
 42 43  1  0  0  0  0
 43 44  2  0  0  0  0
 43 45  1  0  0  0  0
 44 46  1  0  0  0  0
 45 47  1  0  0  0  0
 45 48  2  0  0  0  0
 47 49  1  0  0  0  0
 47 50  2  0  0  0  0
 49 51  2  0  0  0  0
 52 53  1  0  0  0  0
 52 54  1  0  0  0  0
 53 54  1  0  0  0  0
M  CHG  2  15   1  19   1
M  END