
 OpenBabel10252009423D

 93108  0  0  1  0  0  0  0  0999 V2000
  -10.5670   11.7660   67.4990 C   0  0  0  0  0  0  0  0  0  0  0  0
  -10.6220   12.9940   68.2680 O   0  0  0  0  0  0  0  0  0  0  0  0
   -9.5330   13.8000   68.3490 C   0  0  0  0  0  0  0  0  0  0  0  0
   -8.2490   13.3540   68.1760 C   0  0  0  0  0  0  0  0  0  0  0  0
   -8.0110   12.0270   67.6140 C   0  0  0  0  0  0  0  0  0  0  0  0
   -6.8420   11.6350   67.5560 O   0  0  0  0  0  0  0  0  0  0  0  0
   -9.1780   11.3750   66.9070 C   0  0  0  0  0  0  0  0  0  0  0  0
   -7.1540   14.2070   68.3830 C   0  0  0  0  0  0  0  0  0  0  0  0
   -7.3100   15.5980   68.5700 C   0  0  0  0  0  0  0  0  0  0  0  0
   -8.6200   16.1030   68.6200 C   0  0  0  0  0  0  0  0  0  0  0  0
   -9.7060   15.1610   68.6290 C   0  0  0  0  0  0  0  0  0  0  0  0
  -10.9550   15.6010   68.8290 F   0  0  0  0  0  0  0  0  0  0  0  0
   -8.7360   17.5140   68.5980 C   0  0  0  0  0  0  0  0  0  0  0  0
  -10.2570   18.3220   68.7080 Cl  0  0  0  0  0  0  0  0  0  0  0  0
   -7.6110   18.3590   68.3840 C   0  0  0  0  0  0  0  0  0  0  0  0
   -6.2860   17.8940   68.3840 C   0  0  0  0  0  0  0  0  0  0  0  0
   -6.1920   16.4970   68.6220 C   0  0  0  0  0  0  0  0  0  0  0  0
   -4.6710   15.8110   69.1250 Cl  0  0  0  0  0  0  0  0  0  0  0  0
  -11.2480   10.6120   68.3290 C   0  0  0  0  0  0  0  0  0  0  0  0
  -10.4290    9.2860   68.2540 C   0  0  0  0  0  0  0  0  0  0  0  0
  -10.8150    8.3480   67.0980 C   0  0  0  0  0  0  0  0  0  0  0  0
  -10.2750    8.4990   69.5310 C   0  0  0  0  0  0  0  0  0  0  0  0
  -10.4740    9.0030   65.9460 F   0  0  0  0  0  0  0  0  0  0  0  0
  -10.0450    7.0100   67.1280 C   0  0  0  0  0  0  0  0  0  0  0  0
   -8.8520    7.0330   68.1140 C   0  0  0  0  0  0  0  0  0  0  0  0
   -8.0200    5.7500   68.0170 C   0  0  0  0  0  0  0  0  0  0  0  0
   -9.4110    7.3850   69.4970 C   0  0  0  0  0  0  0  0  0  0  0  0
   -8.2870    4.7800   69.1540 C   0  0  0  0  0  0  0  0  0  0  0  0
   -8.1980    5.4600   70.5190 C   0  0  0  0  0  0  0  0  0  0  0  0
   -9.1740    6.6130   70.6670 C   0  0  0  0  0  0  0  0  0  0  0  0
   -6.5260    6.1200   70.7700 Cl  0  0  0  0  0  0  0  0  0  0  0  0
   -9.8500    6.9390   71.8890 C   0  0  0  0  0  0  0  0  0  0  0  0
  -10.7250    8.0590   71.8490 C   0  0  0  0  0  0  0  0  0  0  0  0
  -10.9470    8.8300   70.6970 C   0  0  0  0  0  0  0  0  0  0  0  0
  -11.9790    9.9230   70.6780 C   0  0  0  0  0  0  0  0  0  0  0  0
  -11.5180   11.0680   69.7790 C   0  0  0  0  0  0  0  0  0  0  0  0
   -9.7730    6.1440   73.1710 C   0  0  0  0  0  0  0  0  0  0  0  0
   -8.7180    6.2800   74.0890 C   0  0  0  0  0  0  0  0  0  0  0  0
   -8.5060    5.3910   75.1690 C   0  0  0  0  0  0  0  0  0  0  0  0
   -7.1240    5.3510   75.8150 C   0  0  0  0  0  0  0  0  0  0  0  0
   -9.4990    4.4640   75.4970 C   0  0  0  0  0  0  0  0  0  0  0  0
   -6.1510    4.7040   74.8020 C   0  0  0  0  0  0  0  0  0  0  0  0
   -7.0950    4.6220   77.1800 C   0  0  0  0  0  0  0  0  0  0  0  0
   -4.7380    4.5640   75.3440 C   0  0  0  0  0  0  0  0  0  0  0  0
   -4.7140    3.7610   76.6460 C   0  0  0  0  0  0  0  0  0  0  0  0
   -5.6340    4.4330   77.6940 C   0  0  0  0  0  0  0  0  0  0  0  0
   -3.2620    3.6280   77.1180 C   0  0  0  0  0  0  0  0  0  0  0  0
   -5.5970    3.7080   79.0440 C   0  0  0  0  0  0  0  0  0  0  0  0
   -7.9100    3.3140   77.1010 C   0  0  0  0  0  0  0  0  0  0  0  0
   -9.3780    3.5750   76.7170 C   0  0  0  0  0  0  0  0  0  0  0  0
  -10.1680    4.1810   77.8870 C   0  0  0  0  0  0  0  0  0  0  0  0
  -10.6260    4.3840   74.6760 C   0  0  0  0  0  0  0  0  0  0  0  0
  -10.7300    5.1700   73.5220 C   0  0  0  0  0  0  0  0  0  0  0  0
  -11.8020    4.9520   72.7430 F   0  0  0  0  0  0  0  0  0  0  0  0
   -9.1110   11.8270   65.5320 O   0  0  0  0  0  0  0  0  0  0  0  0
  -10.2110   12.4230   64.9650 C   0  0  0  0  0  0  0  0  0  0  0  0
  -11.0750   11.5650   64.2620 C   0  0  0  0  0  0  0  0  0  0  0  0
  -12.2550   12.0530   63.6930 C   0  0  0  0  0  0  0  0  0  0  0  0
  -12.5750   13.4050   63.7910 C   0  0  0  0  0  0  0  0  0  0  0  0
  -11.7050   14.2680   64.4510 C   0  0  0  0  0  0  0  0  0  0  0  0
  -10.5320   13.7730   65.0370 C   0  0  0  0  0  0  0  0  0  0  0  0
   -5.0930   18.8230   68.0910 C   0  0  0  0  0  0  0  0  0  0  0  0
   -4.6670   19.0500   66.7440 C   0  0  0  0  0  0  0  0  0  0  0  0
   -3.4380   19.7440   66.3510 C   0  0  0  0  0  0  0  0  0  0  0  0
   -2.6380   19.8440   65.0290 C   0  0  0  0  0  0  0  0  0  0  0  0
   -2.8990   20.4740   67.4280 N   0  0  0  0  0  0  0  0  0  0  0  0
   -1.4230   20.5410   64.9950 C   0  0  0  0  0  0  0  0  0  0  0  0
   -0.4680   20.3280   63.9660 N   0  0  0  0  0  0  0  0  0  0  0  0
   -1.0960   21.2480   66.1360 C   0  0  0  0  0  0  0  0  0  0  0  0
   -1.8220   21.2440   67.2600 N   0  0  0  0  0  0  0  0  0  0  0  0
   -3.4210   20.4300   68.7090 N   0  0  0  0  0  0  0  0  0  0  0  0
   -4.3610   19.5180   69.0890 C   0  0  0  0  0  0  0  0  0  0  0  0
   -2.8400   21.5920   69.8550 Cl  0  0  0  0  0  0  0  0  0  0  0  0
   -4.5490   19.2900   70.5720 C   0  0  0  0  0  0  0  0  0  0  0  0
   -2.9720   19.1290   63.6440 N   0  0  0  0  0  0  0  0  0  0  0  0
   -2.5310   17.8250   63.2990 N   0  0  0  0  0  0  0  0  0  0  0  0
   -1.1240   17.1200   64.0180 Cl  0  0  0  0  0  0  0  0  0  0  0  0
   -3.0430   17.1340   62.2030 C   0  0  0  0  0  0  0  0  0  0  0  0
   -3.8620   17.7350   61.2040 C   0  0  0  0  0  0  0  0  0  0  0  0
   -4.1740   19.0640   61.4520 C   0  0  0  0  0  0  0  0  0  0  0  0
   -4.3700   17.1400   60.0000 N   0  0  0  0  0  0  0  0  0  0  0  0
   -3.8460   19.6920   62.7410 C   0  0  0  0  0  0  0  0  0  0  0  0
   -4.7910   19.7300   60.4700 N   0  0  0  0  0  0  0  0  0  0  0  0
   -4.5450   20.8270   63.1460 N   0  0  0  0  0  0  0  0  0  0  0  0
   -5.0780   19.2440   59.2370 N   0  0  0  0  0  0  0  0  0  0  0  0
   -4.9390   17.9040   58.9450 C   0  0  0  0  0  0  0  0  0  0  0  0
   -5.6750   20.4380   58.1640 Cl  0  0  0  0  0  0  0  0  0  0  0  0
   -5.2970   17.2290   57.7940 N   0  0  0  0  0  0  0  0  0  0  0  0
   -5.2880   15.8790   57.7250 C   0  0  0  0  0  0  0  0  0  0  0  0
   -5.7640   17.9960   56.3310 Cl  0  0  0  0  0  0  0  0  0  0  0  0
   -4.8830   15.1530   58.7780 N   0  0  0  0  0  0  0  0  0  0  0  0
   -4.3660   15.7720   59.8730 N   0  0  0  0  0  0  0  0  0  0  0  0
   -5.0140   13.6510   58.7380 C   0  0  0  0  0  0  0  0  0  0  0  0
  1 19  1  0  0  0  0
  1  2  1  0  0  0  0
  1  7  1  0  0  0  0
  2  3  1  0  0  0  0
  3  4  2  0  0  0  0
  3 11  1  0  0  0  0
  4  5  1  0  0  0  0
  4  8  1  0  0  0  0
  5  6  2  0  0  0  0
  5  7  1  0  0  0  0
  7 55  1  0  0  0  0
  8  9  2  0  0  0  0
  9 10  1  0  0  0  0
  9 17  1  0  0  0  0
 10 11  2  0  0  0  0
 10 13  1  0  0  0  0
 11 12  1  0  0  0  0
 13 14  1  0  0  0  0
 13 15  2  0  0  0  0
 15 16  1  0  0  0  0
 16 17  2  0  0  0  0
 16 62  1  0  0  0  0
 17 18  1  0  0  0  0
 19 20  1  0  0  0  0
 19 36  1  0  0  0  0
 20 21  1  0  0  0  0
 20 22  1  0  0  0  0
 21 23  1  0  0  0  0
 21 24  1  0  0  0  0
 22 27  1  0  0  0  0
 22 34  2  0  0  0  0
 24 25  1  0  0  0  0
 25 26  1  0  0  0  0
 25 27  1  0  0  0  0
 26 28  1  0  0  0  0
 27 30  2  0  0  0  0
 28 29  1  0  0  0  0
 29 30  1  0  0  0  0
 29 31  1  0  0  0  0
 30 32  1  0  0  0  0
 32 33  2  0  0  0  0
 32 37  1  0  0  0  0
 33 34  1  0  0  0  0
 34 35  1  0  0  0  0
 35 36  1  0  0  0  0
 37 38  2  0  0  0  0
 37 53  1  0  0  0  0
 38 39  1  0  0  0  0
 39 40  1  0  0  0  0
 39 41  2  0  0  0  0
 40 42  1  0  0  0  0
 40 43  1  0  0  0  0
 41 50  1  0  0  0  0
 41 52  1  0  0  0  0
 42 44  1  0  0  0  0
 43 46  1  0  0  0  0
 43 49  1  0  0  0  0
 44 45  1  0  0  0  0
 45 46  1  0  0  0  0
 45 47  1  0  0  0  0
 46 48  1  0  0  0  0
 49 50  1  0  0  0  0
 50 51  1  0  0  0  0
 52 53  2  0  0  0  0
 53 54  1  0  0  0  0
 55 56  1  0  0  0  0
 56 57  2  0  0  0  0
 56 61  1  0  0  0  0
 57 58  1  0  0  0  0
 58 59  2  0  0  0  0
 59 60  1  0  0  0  0
 60 61  2  0  0  0  0
 62 63  2  0  0  0  0
 62 72  1  0  0  0  0
 63 64  1  0  0  0  0
 64 65  2  0  0  0  0
 64 66  1  0  0  0  0
 65 67  1  0  0  0  0
 65 75  1  0  0  0  0
 66 70  2  0  0  0  0
 66 71  1  0  0  0  0
 67 68  1  0  0  0  0
 67 69  2  0  0  0  0
 69 70  1  0  0  0  0
 71 72  2  0  0  0  0
 71 73  1  0  0  0  0
 72 74  1  0  0  0  0
 75 76  2  0  0  0  0
 75 82  1  0  0  0  0
 76 77  1  0  0  0  0
 76 78  1  0  0  0  0
 78 79  2  0  0  0  0
 79 80  1  0  0  0  0
 79 81  1  0  0  0  0
 80 82  2  0  0  0  0
 80 83  1  0  0  0  0
 81 86  2  0  0  0  0
 81 92  1  0  0  0  0
 82 84  1  0  0  0  0
 83 85  2  0  0  0  0
 85 86  1  0  0  0  0
 85 87  1  0  0  0  0
 86 88  1  0  0  0  0
 88 89  2  0  0  0  0
 88 90  1  0  0  0  0
 89 91  1  0  0  0  0
 91 92  2  0  0  0  0
 91 93  1  0  0  0  0
M  CHG  8  66   1  71   1  75   1  76   1  85   1  81   1  91   1  88   1
M  END