
 OpenBabel11212022103D

 54 62  0  0  1  0  0  0  0  0999 V2000
  -11.1100   15.7430   67.5040 C   0  0  0  0  0  0  0  0  0  0  0  0
  -10.6400   16.8210   68.1750 C   0  0  0  0  0  0  0  0  0  0  0  0
  -10.7540   16.9040   69.5720 O   0  0  0  0  0  0  0  0  0  0  0  0
  -11.5470   15.9950   70.2730 C   0  0  0  0  0  0  0  0  0  0  0  0
  -11.9460   14.8500   69.6940 C   0  0  0  0  0  0  0  0  0  0  0  0
  -11.6720   14.5570   68.2510 C   0  0  0  0  0  0  0  0  0  0  0  0
  -12.7470   13.8170   70.4350 C   0  0  0  0  0  0  0  0  0  0  0  0
  -11.9210   12.6780   70.6040 O   0  0  0  0  0  0  0  0  0  0  0  0
  -12.4390   11.6420   71.3210 C   0  0  0  0  0  0  0  0  0  0  0  0
  -11.9070   10.5450   71.3300 O   0  0  0  0  0  0  0  0  0  0  0  0
  -13.5890   11.9050   71.9880 O   0  0  0  0  0  0  0  0  0  0  0  0
  -13.8880   13.2080   72.4790 C   0  0  0  0  0  0  0  0  0  0  0  0
  -13.1020   14.2690   71.7980 C   0  0  0  0  0  0  0  0  0  0  0  0
  -12.7180   15.4600   72.3070 C   0  0  0  0  0  0  0  0  0  0  0  0
  -11.9020   16.3090   71.5690 O   0  0  0  0  0  0  0  0  0  0  0  0
  -15.2380   13.5100   72.1830 O   0  0  0  0  0  0  0  0  0  0  0  0
   -9.9480   17.9980   67.5240 C   0  0  0  0  0  0  0  0  0  0  0  0
  -10.5920   18.6920   66.4950 C   0  0  0  0  0  0  0  0  0  0  0  0
  -10.0080   19.7350   65.8910 N   0  0  0  0  0  0  0  0  0  0  0  0
  -10.7430   20.3800   64.9190 O   0  0  0  0  0  0  0  0  0  0  0  0
   -8.7940   20.1490   66.1620 N   0  0  0  0  0  0  0  0  0  0  0  0
   -8.0820   19.5060   67.0920 C   0  0  0  0  0  0  0  0  0  0  0  0
   -8.6230   18.4230   67.8220 C   0  0  0  0  0  0  0  0  0  0  0  0
   -6.7620   19.9090   67.3440 C   0  0  0  0  0  0  0  0  0  0  0  0
   -7.7940   17.8230   68.7920 C   0  0  0  0  0  0  0  0  0  0  0  0
   -6.4600   18.1920   68.9570 C   0  0  0  0  0  0  0  0  0  0  0  0
   -5.6140   17.4130   69.8610 C   0  0  0  0  0  0  0  0  0  0  0  0
   -5.9360   19.2670   68.2680 C   0  0  0  0  0  0  0  0  0  0  0  0
   -6.0430   16.3870   70.3700 O   0  0  0  0  0  0  0  0  0  0  0  0
   -4.2040   17.9220   70.0400 C   0  0  0  0  0  0  0  0  0  0  0  0
   -3.3150   17.1510   70.3610 O   0  0  0  0  0  0  0  0  0  0  0  0
   -4.0490   19.4000   69.7430 C   0  0  0  0  0  0  0  0  0  0  0  0
   -4.6830   19.7670   68.4940 O   0  0  0  0  0  0  0  0  0  0  0  0
   -6.2770   20.9640   66.6680 F   0  0  0  0  0  0  0  0  0  0  0  0
   -4.4780   20.2560   70.9160 C   0  0  0  0  0  0  0  0  0  0  0  0
   -5.8190   20.7570   70.8810 O   0  0  0  0  0  0  0  0  0  0  0  0
   -4.0150   19.8230   72.2050 O   0  0  0  0  0  0  0  0  0  0  0  0
   -3.5480   20.9990   71.7720 C   0  0  0  0  0  0  0  0  0  0  0  0
   -2.4230   21.4260   71.5850 O   0  0  0  0  0  0  0  0  0  0  0  0
  -11.0810   15.7190   66.1240 O   0  0  0  0  0  0  0  0  0  0  0  0
  -10.6040   14.5730   65.3800 C   0  0  0  0  0  0  0  0  0  0  0  0
  -10.3140   13.4900   66.2440 O   0  0  0  0  0  0  0  0  0  0  0  0
   -9.9510   12.3460   65.5650 C   0  0  0  0  0  0  0  0  0  0  0  0
   -8.8430   11.6610   65.8770 C   0  0  0  0  0  0  0  0  0  0  0  0
  -10.8290   11.8250   64.4840 C   0  0  0  0  0  0  0  0  0  0  0  0
   -7.9460   12.0800   66.8270 O   0  0  0  0  0  0  0  0  0  0  0  0
  -11.8630   12.8300   64.0120 C   0  0  0  0  0  0  0  0  0  0  0  0
  -10.7220   10.7180   63.9910 O   0  0  0  0  0  0  0  0  0  0  0  0
  -11.7550   14.2790   64.4310 C   0  0  0  0  0  0  0  0  0  0  0  0
  -12.7920   12.4810   63.3020 O   0  0  0  0  0  0  0  0  0  0  0  0
  -12.5420   15.1320   64.0310 O   0  0  0  0  0  0  0  0  0  0  0  0
  -13.1020   15.9360   73.6540 C   0  0  0  0  0  0  0  0  0  0  0  0
  -12.3680   15.5390   74.8170 O   0  0  0  0  0  0  0  0  0  0  0  0
  -12.2890   16.8980   74.3460 O   0  0  0  0  0  0  0  0  0  0  0  0
  1 40  1  0  0  0  0
  1  2  2  0  0  0  0
  1  6  1  0  0  0  0
  2  3  1  0  0  0  0
  2 17  1  0  0  0  0
  3  4  1  0  0  0  0
  4  5  2  0  0  0  0
  4 15  1  0  0  0  0
  5  6  1  0  0  0  0
  5  7  1  0  0  0  0
  7  8  1  0  0  0  0
  7 13  1  0  0  0  0
  8  9  1  0  0  0  0
  9 10  2  0  0  0  0
  9 11  1  0  0  0  0
 11 12  1  0  0  0  0
 12 13  1  0  0  0  0
 12 16  1  0  0  0  0
 13 14  2  0  0  0  0
 14 15  1  0  0  0  0
 14 52  1  0  0  0  0
 17 18  2  0  0  0  0
 17 23  1  0  0  0  0
 18 19  1  0  0  0  0
 19 20  1  0  0  0  0
 19 21  2  0  0  0  0
 21 22  1  0  0  0  0
 22 23  2  0  0  0  0
 22 24  1  0  0  0  0
 23 25  1  0  0  0  0
 24 28  2  0  0  0  0
 24 34  1  0  0  0  0
 25 26  2  0  0  0  0
 26 27  1  0  0  0  0
 26 28  1  0  0  0  0
 27 29  2  0  0  0  0
 27 30  1  0  0  0  0
 28 33  1  0  0  0  0
 30 31  2  0  0  0  0
 30 32  1  0  0  0  0
 32 33  1  0  0  0  0
 32 35  1  0  0  0  0
 35 36  1  0  0  0  0
 35 37  1  0  0  0  0
 35 38  1  0  0  0  0
 37 38  1  0  0  0  0
 38 39  2  0  0  0  0
 40 41  1  0  0  0  0
 41 42  1  0  0  0  0
 41 49  1  0  0  0  0
 42 43  1  0  0  0  0
 43 44  2  0  0  0  0
 43 45  1  0  0  0  0
 44 46  1  0  0  0  0
 45 47  1  0  0  0  0
 45 48  2  0  0  0  0
 47 49  1  0  0  0  0
 47 50  2  0  0  0  0
 49 51  2  0  0  0  0
 52 53  1  0  0  0  0
 52 54  1  0  0  0  0
 53 54  1  0  0  0  0
M  CHG  2  15   1  19   1
M  END