
 OpenBabel11272002113D

 54 62  0  0  1  0  0  0  0  0999 V2000
  -10.5510   15.7190   67.5780 C   0  0  0  0  0  0  0  0  0  0  0  0
  -10.4280   16.9000   68.2280 C   0  0  0  0  0  0  0  0  0  0  0  0
  -10.8290   17.0740   69.5590 O   0  0  0  0  0  0  0  0  0  0  0  0
  -11.5320   16.0510   70.2140 C   0  0  0  0  0  0  0  0  0  0  0  0
  -11.7250   14.8540   69.6270 C   0  0  0  0  0  0  0  0  0  0  0  0
  -11.1840   14.5330   68.2640 C   0  0  0  0  0  0  0  0  0  0  0  0
  -12.5750   13.7870   70.2610 C   0  0  0  0  0  0  0  0  0  0  0  0
  -11.8060   12.5920   70.4240 O   0  0  0  0  0  0  0  0  0  0  0  0
  -12.5130   11.5280   70.8520 C   0  0  0  0  0  0  0  0  0  0  0  0
  -12.1270   10.3780   70.6880 O   0  0  0  0  0  0  0  0  0  0  0  0
  -13.7020   11.8540   71.4480 O   0  0  0  0  0  0  0  0  0  0  0  0
  -13.7520   13.0230   72.2520 C   0  0  0  0  0  0  0  0  0  0  0  0
  -13.0100   14.1490   71.6290 C   0  0  0  0  0  0  0  0  0  0  0  0
  -12.7420   15.3540   72.1910 C   0  0  0  0  0  0  0  0  0  0  0  0
  -12.0310   16.3110   71.4720 O   0  0  0  0  0  0  0  0  0  0  0  0
  -15.0950   13.4800   72.3190 O   0  0  0  0  0  0  0  0  0  0  0  0
   -9.8270   18.1090   67.5980 C   0  0  0  0  0  0  0  0  0  0  0  0
  -10.5820   18.8010   66.6600 C   0  0  0  0  0  0  0  0  0  0  0  0
  -10.1040   19.8980   66.0610 N   0  0  0  0  0  0  0  0  0  0  0  0
  -10.8550   20.5170   65.1310 F   0  0  0  0  0  0  0  0  0  0  0  0
   -8.9100   20.3900   66.3230 N   0  0  0  0  0  0  0  0  0  0  0  0
   -8.1270   19.8010   67.2330 C   0  0  0  0  0  0  0  0  0  0  0  0
   -8.5460   18.6270   67.9040 C   0  0  0  0  0  0  0  0  0  0  0  0
   -6.8580   20.3620   67.5070 C   0  0  0  0  0  0  0  0  0  0  0  0
   -7.6590   18.0380   68.8290 C   0  0  0  0  0  0  0  0  0  0  0  0
   -6.4090   18.6140   69.1030 C   0  0  0  0  0  0  0  0  0  0  0  0
   -5.4600   17.9100   69.9720 C   0  0  0  0  0  0  0  0  0  0  0  0
   -6.0270   19.8000   68.4980 C   0  0  0  0  0  0  0  0  0  0  0  0
   -5.7480   16.8370   70.4770 O   0  0  0  0  0  0  0  0  0  0  0  0
   -4.0860   18.5260   70.0790 C   0  0  0  0  0  0  0  0  0  0  0  0
   -3.0980   17.8200   70.2140 O   0  0  0  0  0  0  0  0  0  0  0  0
   -4.0840   20.0230   69.9020 C   0  0  0  0  0  0  0  0  0  0  0  0
   -4.8470   20.4560   68.7590 O   0  0  0  0  0  0  0  0  0  0  0  0
   -6.4850   21.6020   66.9360 N   0  0  0  0  0  0  0  0  0  0  0  0
   -4.5390   20.7170   71.1570 C   0  0  0  0  0  0  0  0  0  0  0  0
   -5.9560   20.7140   71.4220 O   0  0  0  0  0  0  0  0  0  0  0  0
   -3.7090   20.4670   72.2930 O   0  0  0  0  0  0  0  0  0  0  0  0
   -3.7360   21.8170   71.8250 C   0  0  0  0  0  0  0  0  0  0  0  0
   -4.4890   22.7120   72.6600 O   0  0  0  0  0  0  0  0  0  0  0  0
  -10.1850   15.6050   66.2460 O   0  0  0  0  0  0  0  0  0  0  0  0
   -9.9830   14.2940   65.6480 C   0  0  0  0  0  0  0  0  0  0  0  0
   -9.6600   13.2930   66.6020 O   0  0  0  0  0  0  0  0  0  0  0  0
   -9.5450   12.0350   66.0380 C   0  0  0  0  0  0  0  0  0  0  0  0
   -8.4500   11.2850   66.2110 C   0  0  0  0  0  0  0  0  0  0  0  0
  -10.6810   11.5020   65.2400 C   0  0  0  0  0  0  0  0  0  0  0  0
   -7.3500   11.7360   66.8980 O   0  0  0  0  0  0  0  0  0  0  0  0
  -11.7240   12.5650   64.9590 C   0  0  0  0  0  0  0  0  0  0  0  0
  -10.7520   10.3740   64.7920 O   0  0  0  0  0  0  0  0  0  0  0  0
  -11.2780   14.0120   64.9000 C   0  0  0  0  0  0  0  0  0  0  0  0
  -12.8980   12.2760   64.8090 O   0  0  0  0  0  0  0  0  0  0  0  0
  -11.8900   14.8540   64.2540 O   0  0  0  0  0  0  0  0  0  0  0  0
  -13.1650   15.7500   73.5520 C   0  0  0  0  0  0  0  0  0  0  0  0
  -12.2940   16.6120   74.2760 N   0  0  0  0  0  0  0  0  0  0  0  0
  -12.2760   15.4170   74.6150 N   0  0  0  0  0  0  0  0  0  0  0  0
  1 40  1  0  0  0  0
  1  2  2  0  0  0  0
  1  6  1  0  0  0  0
  2  3  1  0  0  0  0
  2 17  1  0  0  0  0
  3  4  1  0  0  0  0
  4  5  2  0  0  0  0
  4 15  1  0  0  0  0
  5  6  1  0  0  0  0
  5  7  1  0  0  0  0
  7  8  1  0  0  0  0
  7 13  1  0  0  0  0
  8  9  1  0  0  0  0
  9 10  2  0  0  0  0
  9 11  1  0  0  0  0
 11 12  1  0  0  0  0
 12 13  1  0  0  0  0
 12 16  1  0  0  0  0
 13 14  2  0  0  0  0
 14 15  1  0  0  0  0
 14 52  1  0  0  0  0
 17 18  2  0  0  0  0
 17 23  1  0  0  0  0
 18 19  1  0  0  0  0
 19 20  1  0  0  0  0
 19 21  2  0  0  0  0
 21 22  1  0  0  0  0
 22 23  2  0  0  0  0
 22 24  1  0  0  0  0
 23 25  1  0  0  0  0
 24 28  2  0  0  0  0
 24 34  1  0  0  0  0
 25 26  2  0  0  0  0
 26 27  1  0  0  0  0
 26 28  1  0  0  0  0
 27 29  2  0  0  0  0
 27 30  1  0  0  0  0
 28 33  1  0  0  0  0
 30 31  2  0  0  0  0
 30 32  1  0  0  0  0
 32 33  1  0  0  0  0
 32 35  1  0  0  0  0
 35 36  1  0  0  0  0
 35 37  1  0  0  0  0
 35 38  1  0  0  0  0
 37 38  1  0  0  0  0
 38 39  1  0  0  0  0
 40 41  1  0  0  0  0
 41 42  1  0  0  0  0
 41 49  1  0  0  0  0
 42 43  1  0  0  0  0
 43 44  2  0  0  0  0
 43 45  1  0  0  0  0
 44 46  1  0  0  0  0
 45 47  1  0  0  0  0
 45 48  2  0  0  0  0
 47 49  1  0  0  0  0
 47 50  2  0  0  0  0
 49 51  2  0  0  0  0
 52 53  1  0  0  0  0
 52 54  1  0  0  0  0
 53 54  2  0  0  0  0
M  CHG  2  15   1  19   1
M  END