
 OpenBabel11212014453D

 53 61  0  0  1  0  0  0  0  0999 V2000
  -11.1400   15.8400   67.2510 C   0  0  0  0  0  0  0  0  0  0  0  0
  -10.7850   16.9340   67.9630 C   0  0  0  0  0  0  0  0  0  0  0  0
  -11.1130   17.1090   69.3030 O   0  0  0  0  0  0  0  0  0  0  0  0
  -11.7110   16.0720   70.0200 C   0  0  0  0  0  0  0  0  0  0  0  0
  -12.0990   14.9430   69.3990 C   0  0  0  0  0  0  0  0  0  0  0  0
  -11.9370   14.7550   67.9220 C   0  0  0  0  0  0  0  0  0  0  0  0
  -12.6670   13.7730   70.1460 C   0  0  0  0  0  0  0  0  0  0  0  0
  -11.7630   12.6910   69.9870 O   0  0  0  0  0  0  0  0  0  0  0  0
  -12.1660   11.5050   70.5090 C   0  0  0  0  0  0  0  0  0  0  0  0
  -11.7210   10.4400   70.1090 O   0  0  0  0  0  0  0  0  0  0  0  0
  -13.1040   11.6040   71.4830 O   0  0  0  0  0  0  0  0  0  0  0  0
  -13.1740   12.7710   72.2980 C   0  0  0  0  0  0  0  0  0  0  0  0
  -12.7040   14.0070   71.6070 C   0  0  0  0  0  0  0  0  0  0  0  0
  -12.3150   15.1690   72.1940 C   0  0  0  0  0  0  0  0  0  0  0  0
  -11.8620   16.2300   71.3920 O   0  0  0  0  0  0  0  0  0  0  0  0
  -11.3900   17.4730   71.9340 O   0  0  0  0  0  0  0  0  0  0  0  0
  -14.5310   13.0330   72.5960 O   0  0  0  0  0  0  0  0  0  0  0  0
   -9.9910   18.0420   67.4080 C   0  0  0  0  0  0  0  0  0  0  0  0
  -10.6000   18.8940   66.5000 C   0  0  0  0  0  0  0  0  0  0  0  0
   -9.9740   19.9600   65.9770 N   0  0  0  0  0  0  0  0  0  0  0  0
   -8.7040   20.2580   66.3870 N   0  0  0  0  0  0  0  0  0  0  0  0
   -8.0500   19.4750   67.2560 C   0  0  0  0  0  0  0  0  0  0  0  0
   -8.6480   18.3030   67.7600 C   0  0  0  0  0  0  0  0  0  0  0  0
   -6.7600   19.8160   67.6700 C   0  0  0  0  0  0  0  0  0  0  0  0
   -7.8710   17.4520   68.5700 C   0  0  0  0  0  0  0  0  0  0  0  0
   -6.5620   17.7970   68.9280 C   0  0  0  0  0  0  0  0  0  0  0  0
   -6.0170   19.0020   68.5290 C   0  0  0  0  0  0  0  0  0  0  0  0
   -5.7430   16.8380   69.6620 C   0  0  0  0  0  0  0  0  0  0  0  0
   -4.7730   19.4430   68.8670 O   0  0  0  0  0  0  0  0  0  0  0  0
   -4.0950   18.7760   69.9380 C   0  0  0  0  0  0  0  0  0  0  0  0
   -4.4380   17.3280   70.2330 C   0  0  0  0  0  0  0  0  0  0  0  0
   -3.7530   16.5790   70.9160 O   0  0  0  0  0  0  0  0  0  0  0  0
   -6.0920   15.6720   69.7700 O   0  0  0  0  0  0  0  0  0  0  0  0
   -4.1850   19.5930   71.1910 C   0  0  0  0  0  0  0  0  0  0  0  0
   -5.1780   19.1750   72.1600 O   0  0  0  0  0  0  0  0  0  0  0  0
   -2.9180   19.9770   71.7360 O   0  0  0  0  0  0  0  0  0  0  0  0
   -3.7140   20.9750   71.3110 C   0  0  0  0  0  0  0  0  0  0  0  0
   -4.1720   21.9070   71.9260 O   0  0  0  0  0  0  0  0  0  0  0  0
  -10.8500   15.7230   65.8950 O   0  0  0  0  0  0  0  0  0  0  0  0
  -10.5360   14.4180   65.3540 C   0  0  0  0  0  0  0  0  0  0  0  0
  -10.3180   13.4480   66.3790 O   0  0  0  0  0  0  0  0  0  0  0  0
   -9.8940   12.2520   65.8380 C   0  0  0  0  0  0  0  0  0  0  0  0
   -8.6620   11.7680   66.0370 C   0  0  0  0  0  0  0  0  0  0  0  0
  -10.8460   11.5270   64.9660 C   0  0  0  0  0  0  0  0  0  0  0  0
   -7.7080   12.4510   66.7470 O   0  0  0  0  0  0  0  0  0  0  0  0
  -11.9090   12.4580   64.4060 C   0  0  0  0  0  0  0  0  0  0  0  0
  -10.7650   10.3460   64.6860 O   0  0  0  0  0  0  0  0  0  0  0  0
  -11.6660   13.9630   64.4210 C   0  0  0  0  0  0  0  0  0  0  0  0
  -12.9430   12.0020   63.9470 O   0  0  0  0  0  0  0  0  0  0  0  0
  -12.2930   14.7050   63.6780 O   0  0  0  0  0  0  0  0  0  0  0  0
  -12.3300   15.3170   73.6720 C   0  0  0  0  0  0  0  0  0  0  0  0
  -12.3120   16.6270   74.2620 O   0  0  0  0  0  0  0  0  0  0  0  0
  -13.4760   15.7930   74.3940 O   0  0  0  0  0  0  0  0  0  0  0  0
  1 39  1  0  0  0  0
  1  2  2  0  0  0  0
  1  6  1  0  0  0  0
  2  3  1  0  0  0  0
  2 18  1  0  0  0  0
  3  4  1  0  0  0  0
  4  5  2  0  0  0  0
  4 15  1  0  0  0  0
  5  6  1  0  0  0  0
  5  7  1  0  0  0  0
  7  8  1  0  0  0  0
  7 13  1  0  0  0  0
  8  9  1  0  0  0  0
  9 10  2  0  0  0  0
  9 11  1  0  0  0  0
 11 12  1  0  0  0  0
 12 13  1  0  0  0  0
 12 17  1  0  0  0  0
 13 14  2  0  0  0  0
 14 15  1  0  0  0  0
 14 51  1  0  0  0  0
 15 16  1  0  0  0  0
 18 19  2  0  0  0  0
 18 23  1  0  0  0  0
 19 20  1  0  0  0  0
 20 21  2  0  0  0  0
 21 22  1  0  0  0  0
 22 23  2  0  0  0  0
 22 24  1  0  0  0  0
 23 25  1  0  0  0  0
 24 27  2  0  0  0  0
 25 26  2  0  0  0  0
 26 27  1  0  0  0  0
 26 28  1  0  0  0  0
 27 29  1  0  0  0  0
 28 31  1  0  0  0  0
 28 33  2  0  0  0  0
 29 30  1  0  0  0  0
 30 31  1  0  0  0  0
 30 34  1  0  0  0  0
 31 32  2  0  0  0  0
 34 35  1  0  0  0  0
 34 36  1  0  0  0  0
 34 37  1  0  0  0  0
 36 37  1  0  0  0  0
 37 38  2  0  0  0  0
 39 40  1  0  0  0  0
 40 41  1  0  0  0  0
 40 48  1  0  0  0  0
 41 42  1  0  0  0  0
 42 43  2  0  0  0  0
 42 44  1  0  0  0  0
 43 45  1  0  0  0  0
 44 46  1  0  0  0  0
 44 47  2  0  0  0  0
 46 48  1  0  0  0  0
 46 49  2  0  0  0  0
 48 50  2  0  0  0  0
 51 52  1  0  0  0  0
 51 53  1  0  0  0  0
 52 53  1  0  0  0  0
M  CHG  1  15   1
M  END