
 OpenBabel11152012033D

 52 60  0  0  1  0  0  0  0  0999 V2000
  -11.0960   15.7650   66.9740 C   0  0  0  0  0  0  0  0  0  0  0  0
  -10.4710   16.8350   67.5360 C   0  0  0  0  0  0  0  0  0  0  0  0
  -10.4790   17.0450   68.9250 O   0  0  0  0  0  0  0  0  0  0  0  0
  -11.2370   16.2320   69.7480 C   0  0  0  0  0  0  0  0  0  0  0  0
  -11.8700   15.1500   69.2780 C   0  0  0  0  0  0  0  0  0  0  0  0
  -11.8300   14.7750   67.8430 C   0  0  0  0  0  0  0  0  0  0  0  0
  -12.6980   14.2800   70.1780 C   0  0  0  0  0  0  0  0  0  0  0  0
  -12.1710   12.9560   70.1050 O   0  0  0  0  0  0  0  0  0  0  0  0
  -12.4550   12.0220   71.0440 C   0  0  0  0  0  0  0  0  0  0  0  0
  -12.1220   10.8530   70.8930 O   0  0  0  0  0  0  0  0  0  0  0  0
  -13.0950   12.4310   72.1680 O   0  0  0  0  0  0  0  0  0  0  0  0
  -13.5110   13.7700   72.3910 C   0  0  0  0  0  0  0  0  0  0  0  0
  -12.7120   14.7220   71.5960 C   0  0  0  0  0  0  0  0  0  0  0  0
  -12.0640   15.8340   72.0090 C   0  0  0  0  0  0  0  0  0  0  0  0
  -11.3440   16.5690   71.0760 N   0  0  0  0  0  0  0  0  0  0  0  0
  -14.8690   13.9070   72.0050 O   0  0  0  0  0  0  0  0  0  0  0  0
   -9.6600   17.9260   66.7410 C   0  0  0  0  0  0  0  0  0  0  0  0
  -10.3890   19.0590   66.6150 N   0  0  0  0  0  0  0  0  0  0  0  0
  -10.2420   20.0520   67.4620 N   0  0  0  0  0  0  0  0  0  0  0  0
   -9.2560   20.0880   68.3110 N   0  0  0  0  0  0  0  0  0  0  0  0
   -8.2850   19.1790   68.2170 C   0  0  0  0  0  0  0  0  0  0  0  0
   -8.3860   18.1000   67.3410 C   0  0  0  0  0  0  0  0  0  0  0  0
   -7.1410   19.3140   68.9990 C   0  0  0  0  0  0  0  0  0  0  0  0
   -7.2450   17.2770   67.1260 C   0  0  0  0  0  0  0  0  0  0  0  0
   -6.0820   17.4740   67.8760 C   0  0  0  0  0  0  0  0  0  0  0  0
   -6.0530   18.4510   68.8630 C   0  0  0  0  0  0  0  0  0  0  0  0
   -4.8810   16.6570   67.6460 C   0  0  0  0  0  0  0  0  0  0  0  0
   -5.0140   18.6560   69.7310 O   0  0  0  0  0  0  0  0  0  0  0  0
   -4.0720   17.5810   69.8530 C   0  0  0  0  0  0  0  0  0  0  0  0
   -3.6930   16.9710   68.5300 C   0  0  0  0  0  0  0  0  0  0  0  0
   -2.5470   16.7430   68.1710 O   0  0  0  0  0  0  0  0  0  0  0  0
   -4.8280   15.7890   66.7910 O   0  0  0  0  0  0  0  0  0  0  0  0
   -4.5590   16.5510   70.8250 C   0  0  0  0  0  0  0  0  0  0  0  0
   -5.3830   17.0110   71.9280 O   0  0  0  0  0  0  0  0  0  0  0  0
   -4.9660   15.3110   70.2390 O   0  0  0  0  0  0  0  0  0  0  0  0
   -3.8760   15.2910   71.0160 C   0  0  0  0  0  0  0  0  0  0  0  0
   -3.6640   14.6540   72.0410 O   0  0  0  0  0  0  0  0  0  0  0  0
  -11.1280   15.5490   65.6000 O   0  0  0  0  0  0  0  0  0  0  0  0
  -10.6640   14.2770   65.1080 C   0  0  0  0  0  0  0  0  0  0  0  0
  -10.2310   13.4190   66.1680 O   0  0  0  0  0  0  0  0  0  0  0  0
   -9.8760   12.1580   65.7180 C   0  0  0  0  0  0  0  0  0  0  0  0
   -8.6910   11.5950   65.9870 C   0  0  0  0  0  0  0  0  0  0  0  0
  -10.8460   11.3820   64.9030 C   0  0  0  0  0  0  0  0  0  0  0  0
   -7.6990   12.2240   66.6920 O   0  0  0  0  0  0  0  0  0  0  0  0
  -12.0060   12.2280   64.4360 C   0  0  0  0  0  0  0  0  0  0  0  0
  -10.7100   10.2160   64.5750 O   0  0  0  0  0  0  0  0  0  0  0  0
  -11.7600   13.7000   64.2200 C   0  0  0  0  0  0  0  0  0  0  0  0
  -13.0960   11.7310   64.2110 O   0  0  0  0  0  0  0  0  0  0  0  0
  -12.2950   14.2900   63.2910 O   0  0  0  0  0  0  0  0  0  0  0  0
  -12.0730   16.3400   73.4010 C   0  0  0  0  0  0  0  0  0  0  0  0
  -13.2890   16.4440   74.1580 O   0  0  0  0  0  0  0  0  0  0  0  0
  -12.2890   15.4750   74.5310 O   0  0  0  0  0  0  0  0  0  0  0  0
  1 38  1  0  0  0  0
  1  2  2  0  0  0  0
  1  6  1  0  0  0  0
  2  3  1  0  0  0  0
  2 17  1  0  0  0  0
  3  4  1  0  0  0  0
  4  5  2  0  0  0  0
  4 15  1  0  0  0  0
  5  6  1  0  0  0  0
  5  7  1  0  0  0  0
  7  8  1  0  0  0  0
  7 13  1  0  0  0  0
  8  9  1  0  0  0  0
  9 10  2  0  0  0  0
  9 11  1  0  0  0  0
 11 12  1  0  0  0  0
 12 13  1  0  0  0  0
 12 16  1  0  0  0  0
 13 14  2  0  0  0  0
 14 15  1  0  0  0  0
 14 50  1  0  0  0  0
 17 18  1  0  0  0  0
 17 22  1  0  0  0  0
 18 19  2  0  0  0  0
 19 20  2  0  0  0  0
 20 21  1  0  0  0  0
 21 22  2  0  0  0  0
 21 23  1  0  0  0  0
 22 24  1  0  0  0  0
 23 26  2  0  0  0  0
 24 25  2  0  0  0  0
 25 26  1  0  0  0  0
 25 27  1  0  0  0  0
 26 28  1  0  0  0  0
 27 30  1  0  0  0  0
 27 32  2  0  0  0  0
 28 29  1  0  0  0  0
 29 30  1  0  0  0  0
 29 33  1  0  0  0  0
 30 31  2  0  0  0  0
 33 34  1  0  0  0  0
 33 35  1  0  0  0  0
 33 36  1  0  0  0  0
 35 36  1  0  0  0  0
 36 37  2  0  0  0  0
 38 39  1  0  0  0  0
 39 40  1  0  0  0  0
 39 47  1  0  0  0  0
 40 41  1  0  0  0  0
 41 42  2  0  0  0  0
 41 43  1  0  0  0  0
 42 44  1  0  0  0  0
 43 45  1  0  0  0  0
 43 46  2  0  0  0  0
 45 47  1  0  0  0  0
 45 48  2  0  0  0  0
 47 49  2  0  0  0  0
 50 51  1  0  0  0  0
 50 52  1  0  0  0  0
 51 52  1  0  0  0  0
M  CHG  1  19   1
M  END