
 OpenBabel11182016323D

 52 60  0  0  1  0  0  0  0  0999 V2000
  -11.0640   15.9280   67.2640 C   0  0  0  0  0  0  0  0  0  0  0  0
  -10.5300   16.9510   67.9780 C   0  0  0  0  0  0  0  0  0  0  0  0
  -10.7060   17.0540   69.3630 O   0  0  0  0  0  0  0  0  0  0  0  0
  -11.4260   16.0970   70.0520 C   0  0  0  0  0  0  0  0  0  0  0  0
  -11.9710   15.0420   69.4330 C   0  0  0  0  0  0  0  0  0  0  0  0
  -11.9030   14.8840   67.9580 C   0  0  0  0  0  0  0  0  0  0  0  0
  -12.6830   13.9660   70.2070 C   0  0  0  0  0  0  0  0  0  0  0  0
  -11.9780   12.7480   69.9750 O   0  0  0  0  0  0  0  0  0  0  0  0
  -12.1980   11.6530   70.7370 C   0  0  0  0  0  0  0  0  0  0  0  0
  -11.7690   10.5550   70.4030 O   0  0  0  0  0  0  0  0  0  0  0  0
  -12.8960   11.8180   71.8860 O   0  0  0  0  0  0  0  0  0  0  0  0
  -13.3850   13.0720   72.3460 C   0  0  0  0  0  0  0  0  0  0  0  0
  -12.7260   14.2070   71.6730 C   0  0  0  0  0  0  0  0  0  0  0  0
  -12.1990   15.3210   72.2320 C   0  0  0  0  0  0  0  0  0  0  0  0
  -11.5690   16.2460   71.4090 N   0  0  0  0  0  0  0  0  0  0  0  0
  -14.7730   13.1500   72.0680 O   0  0  0  0  0  0  0  0  0  0  0  0
   -9.6670   18.0230   67.4010 C   0  0  0  0  0  0  0  0  0  0  0  0
  -10.2560   18.7540   66.4340 N   0  0  0  0  0  0  0  0  0  0  0  0
   -9.5880   19.6910   65.8310 N   0  0  0  0  0  0  0  0  0  0  0  0
   -8.3300   19.9310   66.1040 N   0  0  0  0  0  0  0  0  0  0  0  0
   -7.6820   19.2410   67.0310 C   0  0  0  0  0  0  0  0  0  0  0  0
   -8.3250   18.2390   67.7500 C   0  0  0  0  0  0  0  0  0  0  0  0
   -6.3900   19.5450   67.2470 N   0  0  0  0  0  0  0  0  0  0  0  0
   -7.5680   17.5630   68.7430 C   0  0  0  0  0  0  0  0  0  0  0  0
   -6.2370   17.8970   68.9550 C   0  0  0  0  0  0  0  0  0  0  0  0
   -5.6880   18.8980   68.1940 C   0  0  0  0  0  0  0  0  0  0  0  0
   -5.4300   17.2150   69.9650 C   0  0  0  0  0  0  0  0  0  0  0  0
   -4.3960   19.3290   68.3100 O   0  0  0  0  0  0  0  0  0  0  0  0
   -3.7460   19.0570   69.5550 C   0  0  0  0  0  0  0  0  0  0  0  0
   -3.9960   17.6690   70.0930 C   0  0  0  0  0  0  0  0  0  0  0  0
   -3.1500   16.9570   70.6120 O   0  0  0  0  0  0  0  0  0  0  0  0
   -5.8860   16.3210   70.6590 O   0  0  0  0  0  0  0  0  0  0  0  0
   -4.0860   20.1010   70.5720 C   0  0  0  0  0  0  0  0  0  0  0  0
   -5.1710   21.0010   70.2370 O   0  0  0  0  0  0  0  0  0  0  0  0
   -4.0670   19.6400   71.9230 O   0  0  0  0  0  0  0  0  0  0  0  0
   -3.1560   20.5780   71.5950 C   0  0  0  0  0  0  0  0  0  0  0  0
   -2.9980   21.6890   72.0410 O   0  0  0  0  0  0  0  0  0  0  0  0
  -10.9470   15.8520   65.8770 O   0  0  0  0  0  0  0  0  0  0  0  0
  -10.7010   14.5660   65.2810 C   0  0  0  0  0  0  0  0  0  0  0  0
  -10.5320   13.5490   66.2760 O   0  0  0  0  0  0  0  0  0  0  0  0
  -10.0850   12.3530   65.7540 C   0  0  0  0  0  0  0  0  0  0  0  0
   -9.0670   11.6790   66.3040 C   0  0  0  0  0  0  0  0  0  0  0  0
  -10.7860   11.7810   64.5790 C   0  0  0  0  0  0  0  0  0  0  0  0
   -8.3610   12.1420   67.3850 O   0  0  0  0  0  0  0  0  0  0  0  0
  -11.8970   12.6760   64.0650 C   0  0  0  0  0  0  0  0  0  0  0  0
  -10.4960   10.7230   64.0500 O   0  0  0  0  0  0  0  0  0  0  0  0
  -11.8870   14.1550   64.4070 C   0  0  0  0  0  0  0  0  0  0  0  0
  -12.7960   12.1970   63.3890 O   0  0  0  0  0  0  0  0  0  0  0  0
  -12.7530   14.8980   63.9700 O   0  0  0  0  0  0  0  0  0  0  0  0
  -12.2410   15.6400   73.6760 C   0  0  0  0  0  0  0  0  0  0  0  0
  -11.9500   16.9580   74.1660 O   0  0  0  0  0  0  0  0  0  0  0  0
  -13.2910   16.4380   74.2520 O   0  0  0  0  0  0  0  0  0  0  0  0
  1 38  1  0  0  0  0
  1  2  2  0  0  0  0
  1  6  1  0  0  0  0
  2  3  1  0  0  0  0
  2 17  1  0  0  0  0
  3  4  1  0  0  0  0
  4  5  2  0  0  0  0
  4 15  1  0  0  0  0
  5  6  1  0  0  0  0
  5  7  1  0  0  0  0
  7  8  1  0  0  0  0
  7 13  1  0  0  0  0
  8  9  1  0  0  0  0
  9 10  2  0  0  0  0
  9 11  1  0  0  0  0
 11 12  1  0  0  0  0
 12 13  1  0  0  0  0
 12 16  1  0  0  0  0
 13 14  2  0  0  0  0
 14 15  1  0  0  0  0
 14 50  1  0  0  0  0
 17 18  2  0  0  0  0
 17 22  1  0  0  0  0
 18 19  1  0  0  0  0
 19 20  2  0  0  0  0
 20 21  1  0  0  0  0
 21 22  2  0  0  0  0
 21 23  1  0  0  0  0
 22 24  1  0  0  0  0
 23 26  2  0  0  0  0
 24 25  2  0  0  0  0
 25 26  1  0  0  0  0
 25 27  1  0  0  0  0
 26 28  1  0  0  0  0
 27 30  1  0  0  0  0
 27 32  2  0  0  0  0
 28 29  1  0  0  0  0
 29 30  1  0  0  0  0
 29 33  1  0  0  0  0
 30 31  2  0  0  0  0
 33 34  1  0  0  0  0
 33 35  1  0  0  0  0
 33 36  1  0  0  0  0
 35 36  1  0  0  0  0
 36 37  2  0  0  0  0
 38 39  1  0  0  0  0
 39 40  1  0  0  0  0
 39 47  1  0  0  0  0
 40 41  1  0  0  0  0
 41 42  2  0  0  0  0
 41 43  1  0  0  0  0
 42 44  1  0  0  0  0
 43 45  1  0  0  0  0
 43 46  2  0  0  0  0
 45 47  1  0  0  0  0
 45 48  2  0  0  0  0
 47 49  2  0  0  0  0
 50 51  1  0  0  0  0
 50 52  1  0  0  0  0
 51 52  1  0  0  0  0
M  END
