
 OpenBabel11242000593D

 53 62  0  0  1  0  0  0  0  0999 V2000
  -10.8660   15.5150   67.4010 C   0  0  0  0  0  0  0  0  0  0  0  0
  -10.6550   16.6730   68.0580 C   0  0  0  0  0  0  0  0  0  0  0  0
  -11.0240   16.8860   69.3770 O   0  0  0  0  0  0  0  0  0  0  0  0
  -11.7070   15.8920   70.0560 C   0  0  0  0  0  0  0  0  0  0  0  0
  -12.0050   14.7110   69.4880 C   0  0  0  0  0  0  0  0  0  0  0  0
  -11.5820   14.3730   68.0920 C   0  0  0  0  0  0  0  0  0  0  0  0
  -12.8580   13.7100   70.2260 C   0  0  0  0  0  0  0  0  0  0  0  0
  -12.1060   12.4710   70.3550 N   0  0  0  0  0  0  0  0  0  0  0  0
  -12.6950   11.4640   71.0500 C   0  0  0  0  0  0  0  0  0  0  0  0
  -12.5650   10.2320   70.7180 N   0  0  0  0  0  0  0  0  0  0  0  0
  -13.3640   11.8250   72.1630 N   0  0  0  0  0  0  0  0  0  0  0  0
  -14.0600   13.0810   72.3060 C   0  0  0  0  0  0  0  0  0  0  0  0
  -13.2540   14.1350   71.6160 C   0  0  0  0  0  0  0  0  0  0  0  0
  -12.8660   15.3230   72.1300 C   0  0  0  0  0  0  0  0  0  0  0  0
  -12.0900   16.1660   71.3430 N   0  0  0  0  0  0  0  0  0  0  0  0
  -10.0380   17.8520   67.4400 C   0  0  0  0  0  0  0  0  0  0  0  0
  -10.7790   18.5850   66.5270 C   0  0  0  0  0  0  0  0  0  0  0  0
  -10.2310   19.6270   65.8990 N   0  0  0  0  0  0  0  0  0  0  0  0
  -10.9670   20.3050   64.9990 F   0  0  0  0  0  0  0  0  0  0  0  0
   -8.9800   20.0060   66.0990 N   0  0  0  0  0  0  0  0  0  0  0  0
   -8.2140   19.3490   66.9810 C   0  0  0  0  0  0  0  0  0  0  0  0
   -8.7100   18.2430   67.6980 C   0  0  0  0  0  0  0  0  0  0  0  0
   -6.8750   19.7580   67.1850 C   0  0  0  0  0  0  0  0  0  0  0  0
   -7.8680   17.5820   68.6230 C   0  0  0  0  0  0  0  0  0  0  0  0
   -6.5590   18.0180   68.8430 C   0  0  0  0  0  0  0  0  0  0  0  0
   -6.0730   19.1230   68.1570 C   0  0  0  0  0  0  0  0  0  0  0  0
   -5.6910   17.3050   69.7920 C   0  0  0  0  0  0  0  0  0  0  0  0
   -4.8010   19.6200   68.3480 O   0  0  0  0  0  0  0  0  0  0  0  0
   -4.1490   19.1900   69.5680 C   0  0  0  0  0  0  0  0  0  0  0  0
   -4.2540   17.7600   69.8770 C   0  0  0  0  0  0  0  0  0  0  0  0
   -2.9220   19.8100   69.8640 O   0  0  0  0  0  0  0  0  0  0  0  0
   -4.0510   20.1200   70.7370 C   0  0  0  0  0  0  0  0  0  0  0  0
   -3.3310   17.0300   70.1880 O   0  0  0  0  0  0  0  0  0  0  0  0
   -4.8770   21.2980   70.4130 O   0  0  0  0  0  0  0  0  0  0  0  0
   -3.8390   21.4640   71.2020 C   0  0  0  0  0  0  0  0  0  0  0  0
   -3.7430   21.9490   72.3100 O   0  0  0  0  0  0  0  0  0  0  0  0
   -6.1150   16.4030   70.4960 O   0  0  0  0  0  0  0  0  0  0  0  0
   -6.3960   20.9430   66.5770 N   0  0  0  0  0  0  0  0  0  0  0  0
  -10.3850   15.3410   66.1080 O   0  0  0  0  0  0  0  0  0  0  0  0
   -9.7000   14.1090   65.8470 C   0  0  0  0  0  0  0  0  0  0  0  0
   -9.2580   13.5170   67.0650 O   0  0  0  0  0  0  0  0  0  0  0  0
   -8.5930   12.3050   66.9470 C   0  0  0  0  0  0  0  0  0  0  0  0
   -7.7100   11.9400   67.8830 C   0  0  0  0  0  0  0  0  0  0  0  0
   -8.8780   11.3480   65.8290 C   0  0  0  0  0  0  0  0  0  0  0  0
   -7.4070   12.7440   68.9530 O   0  0  0  0  0  0  0  0  0  0  0  0
   -9.9300   11.8460   64.8740 C   0  0  0  0  0  0  0  0  0  0  0  0
   -8.3140   10.2760   65.6960 O   0  0  0  0  0  0  0  0  0  0  0  0
  -10.6400   13.1310   65.1640 C   0  0  0  0  0  0  0  0  0  0  0  0
  -10.1490   11.1300   63.3900 S   0  0  0  0  0  0  0  0  0  0  0  0
  -11.8230   13.3070   64.9230 O   0  0  0  0  0  0  0  0  0  0  0  0
  -13.2040   15.7970   73.4840 C   0  0  0  0  0  0  0  0  0  0  0  0
  -12.3040   16.6840   74.1310 N   0  0  0  0  0  0  0  0  0  0  0  0
  -12.3110   15.5140   74.5570 N   0  0  0  0  0  0  0  0  0  0  0  0
  1 39  1  0  0  0  0
  1  2  2  0  0  0  0
  1  6  1  0  0  0  0
  2  3  1  0  0  0  0
  2 16  1  0  0  0  0
  3  4  1  0  0  0  0
  4  5  2  0  0  0  0
  4 15  1  0  0  0  0
  5  6  1  0  0  0  0
  5  7  1  0  0  0  0
  7  8  1  0  0  0  0
  7 13  1  0  0  0  0
  8  9  1  0  0  0  0
  9 10  2  0  0  0  0
  9 11  1  0  0  0  0
 11 12  1  0  0  0  0
 12 13  1  0  0  0  0
 13 14  2  0  0  0  0
 14 15  1  0  0  0  0
 14 51  1  0  0  0  0
 16 17  2  0  0  0  0
 16 22  1  0  0  0  0
 17 18  1  0  0  0  0
 18 19  1  0  0  0  0
 18 20  2  0  0  0  0
 20 21  1  0  0  0  0
 21 22  2  0  0  0  0
 21 23  1  0  0  0  0
 22 24  1  0  0  0  0
 23 26  2  0  0  0  0
 23 38  1  0  0  0  0
 24 25  2  0  0  0  0
 25 26  1  0  0  0  0
 25 27  1  0  0  0  0
 26 28  1  0  0  0  0
 27 30  1  0  0  0  0
 27 37  2  0  0  0  0
 28 29  1  0  0  0  0
 29 30  1  0  0  0  0
 29 31  1  0  0  0  0
 29 32  1  0  0  0  0
 30 33  2  0  0  0  0
 31 32  1  0  0  0  0
 32 34  1  0  0  0  0
 32 35  1  0  0  0  0
 34 35  1  0  0  0  0
 35 36  2  0  0  0  0
 39 40  1  0  0  0  0
 40 41  1  0  0  0  0
 40 48  1  0  0  0  0
 41 42  1  0  0  0  0
 42 43  2  0  0  0  0
 42 44  1  0  0  0  0
 43 45  1  0  0  0  0
 44 46  1  0  0  0  0
 44 47  2  0  0  0  0
 46 48  1  0  0  0  0
 46 49  2  0  0  0  0
 48 50  2  0  0  0  0
 51 52  1  0  0  0  0
 51 53  1  0  0  0  0
 52 53  2  0  0  0  0
M  CHG  1  18   1
M  END