
 OpenBabel11212016203D

 53 61  0  0  1  0  0  0  0  0999 V2000
  -11.1220   15.6370   67.2950 C   0  0  0  0  0  0  0  0  0  0  0  0
  -10.7570   16.7480   67.9820 C   0  0  0  0  0  0  0  0  0  0  0  0
  -11.0790   16.8920   69.3430 O   0  0  0  0  0  0  0  0  0  0  0  0
  -11.7820   15.8950   70.0300 C   0  0  0  0  0  0  0  0  0  0  0  0
  -12.1050   14.7380   69.4240 C   0  0  0  0  0  0  0  0  0  0  0  0
  -11.8200   14.4870   67.9770 C   0  0  0  0  0  0  0  0  0  0  0  0
  -12.7780   13.6120   70.1550 C   0  0  0  0  0  0  0  0  0  0  0  0
  -11.8480   12.5460   70.2070 O   0  0  0  0  0  0  0  0  0  0  0  0
  -12.2360   11.4080   70.8430 C   0  0  0  0  0  0  0  0  0  0  0  0
  -11.6740   10.3450   70.6390 O   0  0  0  0  0  0  0  0  0  0  0  0
  -13.2710   11.5440   71.7080 O   0  0  0  0  0  0  0  0  0  0  0  0
  -13.7280   12.7990   72.2430 C   0  0  0  0  0  0  0  0  0  0  0  0
  -13.0930   13.9640   71.5600 C   0  0  0  0  0  0  0  0  0  0  0  0
  -12.7780   15.1620   72.1050 C   0  0  0  0  0  0  0  0  0  0  0  0
  -12.1180   16.1260   71.3500 O   0  0  0  0  0  0  0  0  0  0  0  0
   -9.9850   17.8990   67.3700 C   0  0  0  0  0  0  0  0  0  0  0  0
  -10.6230   18.7230   66.4330 C   0  0  0  0  0  0  0  0  0  0  0  0
  -10.0190   19.7900   65.9030 N   0  0  0  0  0  0  0  0  0  0  0  0
  -10.7020   20.5650   65.0380 F   0  0  0  0  0  0  0  0  0  0  0  0
   -8.7790   20.1180   66.1920 N   0  0  0  0  0  0  0  0  0  0  0  0
   -8.0770   19.3690   67.0410 C   0  0  0  0  0  0  0  0  0  0  0  0
   -8.6290   18.2250   67.6620 C   0  0  0  0  0  0  0  0  0  0  0  0
   -6.7570   19.7460   67.3240 C   0  0  0  0  0  0  0  0  0  0  0  0
   -7.7760   17.5050   68.5340 C   0  0  0  0  0  0  0  0  0  0  0  0
   -6.4570   17.9040   68.7840 C   0  0  0  0  0  0  0  0  0  0  0  0
   -5.6170   17.1060   69.6700 C   0  0  0  0  0  0  0  0  0  0  0  0
   -5.9430   19.0430   68.2110 C   0  0  0  0  0  0  0  0  0  0  0  0
   -5.9370   15.9520   69.9190 O   0  0  0  0  0  0  0  0  0  0  0  0
   -4.3940   17.7790   70.2530 C   0  0  0  0  0  0  0  0  0  0  0  0
   -3.7340   17.1890   71.0960 O   0  0  0  0  0  0  0  0  0  0  0  0
   -4.1560   19.2070   69.7870 C   0  0  0  0  0  0  0  0  0  0  0  0
   -4.6980   19.5280   68.4890 O   0  0  0  0  0  0  0  0  0  0  0  0
   -6.2670   20.8530   66.7410 F   0  0  0  0  0  0  0  0  0  0  0  0
   -4.5520   20.2090   70.8520 C   0  0  0  0  0  0  0  0  0  0  0  0
   -5.9240   20.6450   70.8440 O   0  0  0  0  0  0  0  0  0  0  0  0
   -3.9840   20.0120   72.1530 O   0  0  0  0  0  0  0  0  0  0  0  0
   -3.6100   21.1150   71.4900 C   0  0  0  0  0  0  0  0  0  0  0  0
   -2.5150   21.5190   71.1390 O   0  0  0  0  0  0  0  0  0  0  0  0
  -10.7890   15.4740   65.9620 O   0  0  0  0  0  0  0  0  0  0  0  0
  -10.2340   14.2160   65.5220 C   0  0  0  0  0  0  0  0  0  0  0  0
   -9.9270   13.4010   66.6400 O   0  0  0  0  0  0  0  0  0  0  0  0
   -9.7180   12.0490   66.4210 C   0  0  0  0  0  0  0  0  0  0  0  0
   -9.1840   11.2960   67.3910 C   0  0  0  0  0  0  0  0  0  0  0  0
  -10.1250   11.3480   65.1630 C   0  0  0  0  0  0  0  0  0  0  0  0
   -8.7970   11.8130   68.6030 O   0  0  0  0  0  0  0  0  0  0  0  0
  -10.8450   12.2320   64.1670 C   0  0  0  0  0  0  0  0  0  0  0  0
   -9.9120   10.1710   64.9370 O   0  0  0  0  0  0  0  0  0  0  0  0
  -11.2900   13.5830   64.6440 C   0  0  0  0  0  0  0  0  0  0  0  0
  -10.9780   11.9280   62.9970 O   0  0  0  0  0  0  0  0  0  0  0  0
  -12.3810   14.0630   64.3720 O   0  0  0  0  0  0  0  0  0  0  0  0
  -13.1130   15.5460   73.4990 C   0  0  0  0  0  0  0  0  0  0  0  0
  -12.2050   15.2500   74.5750 O   0  0  0  0  0  0  0  0  0  0  0  0
  -12.4070   16.6120   74.1500 O   0  0  0  0  0  0  0  0  0  0  0  0
  1 39  1  0  0  0  0
  1  2  2  0  0  0  0
  1  6  1  0  0  0  0
  2  3  1  0  0  0  0
  2 16  1  0  0  0  0
  3  4  1  0  0  0  0
  4  5  2  0  0  0  0
  4 15  1  0  0  0  0
  5  6  1  0  0  0  0
  5  7  1  0  0  0  0
  7  8  1  0  0  0  0
  7 13  1  0  0  0  0
  8  9  1  0  0  0  0
  9 10  2  0  0  0  0
  9 11  1  0  0  0  0
 11 12  1  0  0  0  0
 12 13  1  0  0  0  0
 13 14  2  0  0  0  0
 14 15  1  0  0  0  0
 14 51  1  0  0  0  0
 16 17  2  0  0  0  0
 16 22  1  0  0  0  0
 17 18  1  0  0  0  0
 18 19  1  0  0  0  0
 18 20  2  0  0  0  0
 20 21  1  0  0  0  0
 21 22  2  0  0  0  0
 21 23  1  0  0  0  0
 22 24  1  0  0  0  0
 23 27  2  0  0  0  0
 23 33  1  0  0  0  0
 24 25  2  0  0  0  0
 25 26  1  0  0  0  0
 25 27  1  0  0  0  0
 26 28  2  0  0  0  0
 26 29  1  0  0  0  0
 27 32  1  0  0  0  0
 29 30  2  0  0  0  0
 29 31  1  0  0  0  0
 31 32  1  0  0  0  0
 31 34  1  0  0  0  0
 34 35  1  0  0  0  0
 34 36  1  0  0  0  0
 34 37  1  0  0  0  0
 36 37  1  0  0  0  0
 37 38  2  0  0  0  0
 39 40  1  0  0  0  0
 40 41  1  0  0  0  0
 40 48  1  0  0  0  0
 41 42  1  0  0  0  0
 42 43  2  0  0  0  0
 42 44  1  0  0  0  0
 43 45  1  0  0  0  0
 44 46  1  0  0  0  0
 44 47  2  0  0  0  0
 46 48  1  0  0  0  0
 46 49  2  0  0  0  0
 48 50  2  0  0  0  0
 51 52  1  0  0  0  0
 51 53  1  0  0  0  0
 52 53  1  0  0  0  0
M  CHG  2  15   1  18   1
M  END