
 OpenBabel11272019513D

 54 62  0  0  1  0  0  0  0  0999 V2000
  -10.9570   15.7700   67.2230 C   0  0  0  0  0  0  0  0  0  0  0  0
  -10.6290   16.8740   67.9430 C   0  0  0  0  0  0  0  0  0  0  0  0
  -10.9360   16.9580   69.3190 O   0  0  0  0  0  0  0  0  0  0  0  0
  -11.6390   15.9250   69.9600 C   0  0  0  0  0  0  0  0  0  0  0  0
  -11.8620   14.7560   69.3300 C   0  0  0  0  0  0  0  0  0  0  0  0
  -11.4800   14.5320   67.9060 C   0  0  0  0  0  0  0  0  0  0  0  0
  -12.5790   13.6060   69.9780 C   0  0  0  0  0  0  0  0  0  0  0  0
  -11.6920   12.5120   70.0360 O   0  0  0  0  0  0  0  0  0  0  0  0
  -12.1710   11.3860   70.6370 C   0  0  0  0  0  0  0  0  0  0  0  0
  -11.6570   10.3020   70.4140 O   0  0  0  0  0  0  0  0  0  0  0  0
  -13.2220   11.5410   71.4860 O   0  0  0  0  0  0  0  0  0  0  0  0
  -13.5750   12.7440   71.9740 C   0  0  0  0  0  0  0  0  0  0  0  0
  -14.4060   12.8920   72.8570 O   0  0  0  0  0  0  0  0  0  0  0  0
  -12.9440   13.9110   71.3610 C   0  0  0  0  0  0  0  0  0  0  0  0
  -12.7370   15.1050   71.9570 C   0  0  0  0  0  0  0  0  0  0  0  0
  -12.0900   16.1270   71.2570 O   0  0  0  0  0  0  0  0  0  0  0  0
   -9.8600   18.0520   67.3720 C   0  0  0  0  0  0  0  0  0  0  0  0
  -10.4840   18.8460   66.4030 C   0  0  0  0  0  0  0  0  0  0  0  0
   -9.8660   19.8790   65.8260 N   0  0  0  0  0  0  0  0  0  0  0  0
  -10.5350   20.6170   64.9180 F   0  0  0  0  0  0  0  0  0  0  0  0
   -8.6180   20.1890   66.0780 N   0  0  0  0  0  0  0  0  0  0  0  0
   -7.9250   19.4840   66.9710 C   0  0  0  0  0  0  0  0  0  0  0  0
   -8.5100   18.3950   67.6710 C   0  0  0  0  0  0  0  0  0  0  0  0
   -6.5800   19.8510   67.1960 C   0  0  0  0  0  0  0  0  0  0  0  0
   -7.7010   17.7410   68.6270 C   0  0  0  0  0  0  0  0  0  0  0  0
   -6.3740   18.1270   68.8580 C   0  0  0  0  0  0  0  0  0  0  0  0
   -5.5670   17.3970   69.8360 C   0  0  0  0  0  0  0  0  0  0  0  0
   -5.8190   19.1950   68.1790 C   0  0  0  0  0  0  0  0  0  0  0  0
   -6.0120   16.3900   70.3690 O   0  0  0  0  0  0  0  0  0  0  0  0
   -4.1690   17.9180   70.0820 C   0  0  0  0  0  0  0  0  0  0  0  0
   -3.3080   17.1700   70.5200 O   0  0  0  0  0  0  0  0  0  0  0  0
   -3.9680   19.3660   69.6990 C   0  0  0  0  0  0  0  0  0  0  0  0
   -4.5580   19.6820   68.4210 O   0  0  0  0  0  0  0  0  0  0  0  0
   -6.0550   21.0330   66.6210 N   0  0  0  0  0  0  0  0  0  0  0  0
   -4.3750   20.3180   70.7990 C   0  0  0  0  0  0  0  0  0  0  0  0
   -5.6930   20.8830   70.6870 O   0  0  0  0  0  0  0  0  0  0  0  0
   -3.9870   19.9360   72.1320 O   0  0  0  0  0  0  0  0  0  0  0  0
   -3.4450   21.0530   71.6350 C   0  0  0  0  0  0  0  0  0  0  0  0
   -2.2960   21.4130   71.4590 O   0  0  0  0  0  0  0  0  0  0  0  0
  -10.7410   15.7060   65.8550 O   0  0  0  0  0  0  0  0  0  0  0  0
  -10.4710   14.4230   65.2290 C   0  0  0  0  0  0  0  0  0  0  0  0
  -10.2420   13.3980   66.1890 O   0  0  0  0  0  0  0  0  0  0  0  0
   -9.8650   12.2080   65.6010 C   0  0  0  0  0  0  0  0  0  0  0  0
   -8.7770   11.5510   66.0100 C   0  0  0  0  0  0  0  0  0  0  0  0
  -10.7080   11.6370   64.5220 C   0  0  0  0  0  0  0  0  0  0  0  0
   -7.9710   12.0680   66.9610 F   0  0  0  0  0  0  0  0  0  0  0  0
  -11.7800   12.6000   64.0280 C   0  0  0  0  0  0  0  0  0  0  0  0
  -10.5480   10.5260   64.0550 O   0  0  0  0  0  0  0  0  0  0  0  0
  -11.6960   14.0730   64.3990 C   0  0  0  0  0  0  0  0  0  0  0  0
  -12.7160   12.2000   63.3580 O   0  0  0  0  0  0  0  0  0  0  0  0
  -12.5490   14.8870   64.0690 O   0  0  0  0  0  0  0  0  0  0  0  0
  -13.1650   15.4370   73.3420 C   0  0  0  0  0  0  0  0  0  0  0  0
  -12.2620   15.2490   74.4430 O   0  0  0  0  0  0  0  0  0  0  0  0
  -12.6180   16.5760   74.0170 O   0  0  0  0  0  0  0  0  0  0  0  0
  1 40  1  0  0  0  0
  1  2  2  0  0  0  0
  1  6  1  0  0  0  0
  2  3  1  0  0  0  0
  2 17  1  0  0  0  0
  3  4  1  0  0  0  0
  4  5  2  0  0  0  0
  4 16  1  0  0  0  0
  5  6  1  0  0  0  0
  5  7  1  0  0  0  0
  7  8  1  0  0  0  0
  7 14  1  0  0  0  0
  8  9  1  0  0  0  0
  9 10  2  0  0  0  0
  9 11  1  0  0  0  0
 11 12  1  0  0  0  0
 12 13  2  0  0  0  0
 12 14  1  0  0  0  0
 14 15  2  0  0  0  0
 15 16  1  0  0  0  0
 15 52  1  0  0  0  0
 17 18  2  0  0  0  0
 17 23  1  0  0  0  0
 18 19  1  0  0  0  0
 19 20  1  0  0  0  0
 19 21  2  0  0  0  0
 21 22  1  0  0  0  0
 22 23  2  0  0  0  0
 22 24  1  0  0  0  0
 23 25  1  0  0  0  0
 24 28  2  0  0  0  0
 24 34  1  0  0  0  0
 25 26  2  0  0  0  0
 26 27  1  0  0  0  0
 26 28  1  0  0  0  0
 27 29  2  0  0  0  0
 27 30  1  0  0  0  0
 28 33  1  0  0  0  0
 30 31  2  0  0  0  0
 30 32  1  0  0  0  0
 32 33  1  0  0  0  0
 32 35  1  0  0  0  0
 35 36  1  0  0  0  0
 35 37  1  0  0  0  0
 35 38  1  0  0  0  0
 37 38  1  0  0  0  0
 38 39  2  0  0  0  0
 40 41  1  0  0  0  0
 41 42  1  0  0  0  0
 41 49  1  0  0  0  0
 42 43  1  0  0  0  0
 43 44  2  0  0  0  0
 43 45  1  0  0  0  0
 44 46  1  0  0  0  0
 45 47  1  0  0  0  0
 45 48  2  0  0  0  0
 47 49  1  0  0  0  0
 47 50  2  0  0  0  0
 49 51  2  0  0  0  0
 52 53  1  0  0  0  0
 52 54  1  0  0  0  0
 53 54  1  0  0  0  0
M  CHG  2  16   1  19   1
M  END