
 OpenBabel11142001173D

 52 60  0  0  1  0  0  0  0  0999 V2000
  -10.0520   16.3080   67.5890 C   0  0  0  0  0  0  0  0  0  0  0  0
  -10.0700   17.4200   68.3710 C   0  0  0  0  0  0  0  0  0  0  0  0
  -10.6600   17.4200   69.6460 O   0  0  0  0  0  0  0  0  0  0  0  0
  -11.2470   16.2640   70.1440 C   0  0  0  0  0  0  0  0  0  0  0  0
  -11.1960   15.1090   69.4710 C   0  0  0  0  0  0  0  0  0  0  0  0
  -10.5560   14.9870   68.1370 C   0  0  0  0  0  0  0  0  0  0  0  0
  -11.8130   13.8990   70.0870 C   0  0  0  0  0  0  0  0  0  0  0  0
  -11.7480   12.7520   69.4830 N   0  0  0  0  0  0  0  0  0  0  0  0
  -12.3110   11.6830   70.1170 C   0  0  0  0  0  0  0  0  0  0  0  0
  -12.1550   10.5590   69.5230 N   0  0  0  0  0  0  0  0  0  0  0  0
  -13.0090   11.6760   71.2850 N   0  0  0  0  0  0  0  0  0  0  0  0
  -13.0790   12.8080   71.8790 C   0  0  0  0  0  0  0  0  0  0  0  0
  -12.4970   14.0610   71.4020 C   0  0  0  0  0  0  0  0  0  0  0  0
  -12.5150   15.2800   71.9820 C   0  0  0  0  0  0  0  0  0  0  0  0
  -11.8910   16.3520   71.3510 N   0  0  0  0  0  0  0  0  0  0  0  0
  -13.7550   12.8590   73.0310 O   0  0  0  0  0  0  0  0  0  0  0  0
   -9.5030   18.8190   67.9650 C   0  0  0  0  0  0  0  0  0  0  0  0
  -10.2130   19.3940   66.9540 N   0  0  0  0  0  0  0  0  0  0  0  0
   -9.5510   19.7860   65.8530 C   0  0  0  0  0  0  0  0  0  0  0  0
   -8.2290   19.7340   65.6620 N   0  0  0  0  0  0  0  0  0  0  0  0
   -7.4950   19.2770   66.6710 C   0  0  0  0  0  0  0  0  0  0  0  0
   -8.0610   18.8120   67.8750 C   0  0  0  0  0  0  0  0  0  0  0  0
   -6.1080   19.2880   66.5170 C   0  0  0  0  0  0  0  0  0  0  0  0
   -7.1690   18.4360   68.9150 C   0  0  0  0  0  0  0  0  0  0  0  0
   -5.7780   18.4480   68.7290 C   0  0  0  0  0  0  0  0  0  0  0  0
   -5.2400   18.8780   67.5300 C   0  0  0  0  0  0  0  0  0  0  0  0
   -4.8920   17.9330   69.7760 C   0  0  0  0  0  0  0  0  0  0  0  0
   -3.9080   18.9020   67.2330 O   0  0  0  0  0  0  0  0  0  0  0  0
   -2.9920   18.8380   68.3290 C   0  0  0  0  0  0  0  0  0  0  0  0
   -3.4030   18.0300   69.5390 C   0  0  0  0  0  0  0  0  0  0  0  0
   -2.6120   17.5180   70.3200 O   0  0  0  0  0  0  0  0  0  0  0  0
   -5.3400   17.4070   70.7830 O   0  0  0  0  0  0  0  0  0  0  0  0
   -2.5920   20.2210   68.7310 C   0  0  0  0  0  0  0  0  0  0  0  0
   -3.5640   20.9770   69.4940 O   0  0  0  0  0  0  0  0  0  0  0  0
   -1.2310   20.3600   69.1460 O   0  0  0  0  0  0  0  0  0  0  0  0
   -1.5860   21.0130   68.0230 C   0  0  0  0  0  0  0  0  0  0  0  0
   -1.5570   22.1960   67.7740 O   0  0  0  0  0  0  0  0  0  0  0  0
   -9.4970   16.3120   66.3130 O   0  0  0  0  0  0  0  0  0  0  0  0
   -9.7970   15.2260   65.4260 C   0  0  0  0  0  0  0  0  0  0  0  0
   -9.9900   14.0230   66.1960 O   0  0  0  0  0  0  0  0  0  0  0  0
  -10.1560   12.8950   65.4050 C   0  0  0  0  0  0  0  0  0  0  0  0
   -9.6630   11.7120   65.7870 C   0  0  0  0  0  0  0  0  0  0  0  0
  -10.9110   12.9640   64.1250 C   0  0  0  0  0  0  0  0  0  0  0  0
   -8.9750   11.5090   66.9550 O   0  0  0  0  0  0  0  0  0  0  0  0
  -11.6220   14.2830   63.9360 C   0  0  0  0  0  0  0  0  0  0  0  0
  -10.9340   12.0920   63.2760 O   0  0  0  0  0  0  0  0  0  0  0  0
  -11.0640   15.5080   64.6150 C   0  0  0  0  0  0  0  0  0  0  0  0
  -12.6340   14.3500   63.2570 O   0  0  0  0  0  0  0  0  0  0  0  0
  -11.5840   16.6020   64.4490 O   0  0  0  0  0  0  0  0  0  0  0  0
  -13.1640   15.5940   73.2790 C   0  0  0  0  0  0  0  0  0  0  0  0
  -12.5150   15.3330   74.5330 O   0  0  0  0  0  0  0  0  0  0  0  0
  -12.7190   16.6910   74.1010 O   0  0  0  0  0  0  0  0  0  0  0  0
  1 38  1  0  0  0  0
  1  2  2  0  0  0  0
  1  6  1  0  0  0  0
  2  3  1  0  0  0  0
  2 17  1  0  0  0  0
  3  4  1  0  0  0  0
  4  5  2  0  0  0  0
  4 15  1  0  0  0  0
  5  6  1  0  0  0  0
  5  7  1  0  0  0  0
  7  8  2  0  0  0  0
  7 13  1  0  0  0  0
  8  9  1  0  0  0  0
  9 10  2  0  0  0  0
  9 11  1  0  0  0  0
 11 12  2  0  0  0  0
 12 13  1  0  0  0  0
 12 16  1  0  0  0  0
 13 14  2  0  0  0  0
 14 15  1  0  0  0  0
 14 50  1  0  0  0  0
 17 18  1  0  0  0  0
 17 22  1  0  0  0  0
 18 19  2  0  0  0  0
 19 20  2  0  0  0  0
 20 21  1  0  0  0  0
 21 22  2  0  0  0  0
 21 23  1  0  0  0  0
 22 24  1  0  0  0  0
 23 26  2  0  0  0  0
 24 25  2  0  0  0  0
 25 26  1  0  0  0  0
 25 27  1  0  0  0  0
 26 28  1  0  0  0  0
 27 30  1  0  0  0  0
 27 32  2  0  0  0  0
 28 29  1  0  0  0  0
 29 30  1  0  0  0  0
 29 33  1  0  0  0  0
 30 31  2  0  0  0  0
 33 34  1  0  0  0  0
 33 35  1  0  0  0  0
 33 36  1  0  0  0  0
 35 36  1  0  0  0  0
 36 37  2  0  0  0  0
 38 39  1  0  0  0  0
 39 40  1  0  0  0  0
 39 47  1  0  0  0  0
 40 41  1  0  0  0  0
 41 42  2  0  0  0  0
 41 43  1  0  0  0  0
 42 44  1  0  0  0  0
 43 45  1  0  0  0  0
 43 46  2  0  0  0  0
 45 47  1  0  0  0  0
 45 48  2  0  0  0  0
 47 49  2  0  0  0  0
 50 51  1  0  0  0  0
 50 52  1  0  0  0  0
 51 52  1  0  0  0  0
M  END
