
 OpenBabel11252017073D

 53 60  0  0  1  0  0  0  0  0999 V2000
  -11.2030   15.8870   67.5490 C   0  0  0  0  0  0  0  0  0  0  0  0
  -10.6860   16.9440   68.2320 C   0  0  0  0  0  0  0  0  0  0  0  0
  -10.8420   17.0400   69.6350 O   0  0  0  0  0  0  0  0  0  0  0  0
  -11.5850   16.0720   70.3400 C   0  0  0  0  0  0  0  0  0  0  0  0
  -11.9930   14.9440   69.7300 C   0  0  0  0  0  0  0  0  0  0  0  0
  -11.7730   14.6980   68.2790 C   0  0  0  0  0  0  0  0  0  0  0  0
  -12.7370   13.8460   70.4420 C   0  0  0  0  0  0  0  0  0  0  0  0
  -11.8940   12.7090   70.4480 O   0  0  0  0  0  0  0  0  0  0  0  0
  -12.3300   11.6020   71.1080 C   0  0  0  0  0  0  0  0  0  0  0  0
  -11.8120   10.5130   70.9240 O   0  0  0  0  0  0  0  0  0  0  0  0
  -13.3560   11.7860   71.9740 O   0  0  0  0  0  0  0  0  0  0  0  0
  -13.7320   13.0560   72.4950 C   0  0  0  0  0  0  0  0  0  0  0  0
  -12.9980   14.1770   71.8550 C   0  0  0  0  0  0  0  0  0  0  0  0
  -12.5850   15.3350   72.4020 C   0  0  0  0  0  0  0  0  0  0  0  0
  -11.8740   16.2810   71.6750 O   0  0  0  0  0  0  0  0  0  0  0  0
  -15.0960   13.2830   72.2010 O   0  0  0  0  0  0  0  0  0  0  0  0
   -9.8670   18.0480   67.5810 C   0  0  0  0  0  0  0  0  0  0  0  0
  -10.4780   18.8110   66.5720 C   0  0  0  0  0  0  0  0  0  0  0  0
   -9.8350   19.8000   65.9430 N   0  0  0  0  0  0  0  0  0  0  0  0
  -10.4780   20.5050   64.9920 F   0  0  0  0  0  0  0  0  0  0  0  0
   -8.5850   20.1050   66.2000 N   0  0  0  0  0  0  0  0  0  0  0  0
   -7.9060   19.4080   67.1070 C   0  0  0  0  0  0  0  0  0  0  0  0
   -8.4920   18.3490   67.8420 C   0  0  0  0  0  0  0  0  0  0  0  0
   -6.5670   19.7520   67.3110 C   0  0  0  0  0  0  0  0  0  0  0  0
   -7.6390   17.6850   68.7640 C   0  0  0  0  0  0  0  0  0  0  0  0
   -6.2830   18.0420   68.9280 C   0  0  0  0  0  0  0  0  0  0  0  0
   -5.4190   17.2660   69.8220 C   0  0  0  0  0  0  0  0  0  0  0  0
   -5.7420   19.0910   68.2160 C   0  0  0  0  0  0  0  0  0  0  0  0
   -5.8560   16.2580   70.3580 O   0  0  0  0  0  0  0  0  0  0  0  0
   -3.9920   17.7430   70.0100 C   0  0  0  0  0  0  0  0  0  0  0  0
   -3.1890   17.0460   70.6100 O   0  0  0  0  0  0  0  0  0  0  0  0
   -3.7090   19.1350   69.4810 C   0  0  0  0  0  0  0  0  0  0  0  0
   -4.4460   19.4970   68.3040 O   0  0  0  0  0  0  0  0  0  0  0  0
   -6.0510   20.7650   66.5950 F   0  0  0  0  0  0  0  0  0  0  0  0
   -3.9070   20.1670   70.5590 C   0  0  0  0  0  0  0  0  0  0  0  0
   -4.8490   21.2270   70.2610 O   0  0  0  0  0  0  0  0  0  0  0  0
   -3.9500   19.6970   71.8920 O   0  0  0  0  0  0  0  0  0  0  0  0
   -2.8640   20.4040   71.5370 C   0  0  0  0  0  0  0  0  0  0  0  0
   -1.7030   20.1120   71.5440 O   0  0  0  0  0  0  0  0  0  0  0  0
  -11.1550   15.8040   66.1640 O   0  0  0  0  0  0  0  0  0  0  0  0
  -10.6770   14.5670   65.5710 C   0  0  0  0  0  0  0  0  0  0  0  0
  -10.2100   13.6720   66.5710 O   0  0  0  0  0  0  0  0  0  0  0  0
   -9.7150   12.4840   66.0620 C   0  0  0  0  0  0  0  0  0  0  0  0
   -8.5870   11.9480   66.5420 C   0  0  0  0  0  0  0  0  0  0  0  0
  -10.4320   11.7570   64.9720 C   0  0  0  0  0  0  0  0  0  0  0  0
   -7.8240   12.5560   67.5080 O   0  0  0  0  0  0  0  0  0  0  0  0
  -11.5360   12.5630   64.3100 C   0  0  0  0  0  0  0  0  0  0  0  0
  -10.1430   10.6320   64.6060 O   0  0  0  0  0  0  0  0  0  0  0  0
  -11.8380   13.9550   64.8130 C   0  0  0  0  0  0  0  0  0  0  0  0
  -12.1410   12.1290   63.3450 O   0  0  0  0  0  0  0  0  0  0  0  0
  -12.9050   14.5180   64.6070 O   0  0  0  0  0  0  0  0  0  0  0  0
  -12.8440   15.7430   73.8230 C   0  0  0  0  0  0  0  0  0  0  0  0
  -12.2330   17.0270   73.9680 O   0  0  0  0  0  0  0  0  0  0  0  0
  1 40  1  0  0  0  0
  1  2  2  0  0  0  0
  1  6  1  0  0  0  0
  2  3  1  0  0  0  0
  2 17  1  0  0  0  0
  3  4  1  0  0  0  0
  4  5  2  0  0  0  0
  4 15  1  0  0  0  0
  5  6  1  0  0  0  0
  5  7  1  0  0  0  0
  7  8  1  0  0  0  0
  7 13  1  0  0  0  0
  8  9  1  0  0  0  0
  9 10  2  0  0  0  0
  9 11  1  0  0  0  0
 11 12  1  0  0  0  0
 12 13  1  0  0  0  0
 12 16  1  0  0  0  0
 13 14  2  0  0  0  0
 14 15  1  0  0  0  0
 14 52  1  0  0  0  0
 17 18  2  0  0  0  0
 17 23  1  0  0  0  0
 18 19  1  0  0  0  0
 19 20  1  0  0  0  0
 19 21  2  0  0  0  0
 21 22  1  0  0  0  0
 22 23  2  0  0  0  0
 22 24  1  0  0  0  0
 23 25  1  0  0  0  0
 24 28  2  0  0  0  0
 24 34  1  0  0  0  0
 25 26  2  0  0  0  0
 26 27  1  0  0  0  0
 26 28  1  0  0  0  0
 27 29  2  0  0  0  0
 27 30  1  0  0  0  0
 28 33  1  0  0  0  0
 30 31  2  0  0  0  0
 30 32  1  0  0  0  0
 32 33  1  0  0  0  0
 32 35  1  0  0  0  0
 35 36  1  0  0  0  0
 35 37  1  0  0  0  0
 35 38  1  0  0  0  0
 37 38  1  0  0  0  0
 38 39  2  0  0  0  0
 40 41  1  0  0  0  0
 41 42  1  0  0  0  0
 41 49  1  0  0  0  0
 42 43  1  0  0  0  0
 43 44  2  0  0  0  0
 43 45  1  0  0  0  0
 44 46  1  0  0  0  0
 45 47  1  0  0  0  0
 45 48  2  0  0  0  0
 47 49  1  0  0  0  0
 47 50  2  0  0  0  0
 49 51  2  0  0  0  0
 52 53  1  0  0  0  0
M  CHG  2  15   1  19   1
M  END