
 OpenBabel11222001513D

 54 62  0  0  1  0  0  0  0  0999 V2000
  -11.0730   15.8300   67.1640 C   0  0  0  0  0  0  0  0  0  0  0  0
  -10.6290   16.9080   67.8520 C   0  0  0  0  0  0  0  0  0  0  0  0
  -10.9430   17.1170   69.2090 O   0  0  0  0  0  0  0  0  0  0  0  0
  -11.5880   16.1060   69.9400 C   0  0  0  0  0  0  0  0  0  0  0  0
  -12.0440   15.0000   69.3250 C   0  0  0  0  0  0  0  0  0  0  0  0
  -11.9580   14.8100   67.8390 C   0  0  0  0  0  0  0  0  0  0  0  0
  -12.6260   13.8430   70.0900 C   0  0  0  0  0  0  0  0  0  0  0  0
  -11.7450   12.7590   69.8970 O   0  0  0  0  0  0  0  0  0  0  0  0
  -12.0720   11.5630   70.5000 C   0  0  0  0  0  0  0  0  0  0  0  0
  -11.5570   10.5200   70.1880 O   0  0  0  0  0  0  0  0  0  0  0  0
  -13.0250   11.6730   71.4440 O   0  0  0  0  0  0  0  0  0  0  0  0
  -13.1490   12.8590   72.2410 C   0  0  0  0  0  0  0  0  0  0  0  0
  -12.6370   14.0790   71.5470 C   0  0  0  0  0  0  0  0  0  0  0  0
  -12.2120   15.2340   72.1110 C   0  0  0  0  0  0  0  0  0  0  0  0
  -11.7170   16.2600   71.3080 O   0  0  0  0  0  0  0  0  0  0  0  0
  -14.5120   13.1190   72.4760 O   0  0  0  0  0  0  0  0  0  0  0  0
   -9.7670   17.9720   67.2550 C   0  0  0  0  0  0  0  0  0  0  0  0
  -10.3970   18.7920   66.3820 N   0  0  0  0  0  0  0  0  0  0  0  0
   -9.7100   19.8040   65.8480 N   0  0  0  0  0  0  0  0  0  0  0  0
  -10.3220   20.5860   64.9360 F   0  0  0  0  0  0  0  0  0  0  0  0
   -8.4510   20.0910   66.1980 C   0  0  0  0  0  0  0  0  0  0  0  0
   -7.7680   19.2890   67.1050 C   0  0  0  0  0  0  0  0  0  0  0  0
   -8.4180   18.1610   67.6290 C   0  0  0  0  0  0  0  0  0  0  0  0
   -6.4510   19.5940   67.4910 C   0  0  0  0  0  0  0  0  0  0  0  0
   -7.6610   17.3110   68.4740 C   0  0  0  0  0  0  0  0  0  0  0  0
   -6.3180   17.5910   68.7890 C   0  0  0  0  0  0  0  0  0  0  0  0
   -5.4830   16.6290   69.5220 C   0  0  0  0  0  0  0  0  0  0  0  0
   -5.7240   18.7700   68.3510 C   0  0  0  0  0  0  0  0  0  0  0  0
   -5.8210   15.4270   69.8650 N   0  0  0  0  0  0  0  0  0  0  0  0
   -4.0900   17.0670   69.8780 C   0  0  0  0  0  0  0  0  0  0  0  0
   -3.2340   16.1950   70.3130 N   0  0  0  0  0  0  0  0  0  0  0  0
   -3.8160   18.5440   69.7890 C   0  0  0  0  0  0  0  0  0  0  0  0
   -4.4530   19.1620   68.6560 O   0  0  0  0  0  0  0  0  0  0  0  0
   -5.8880   20.7130   67.0080 F   0  0  0  0  0  0  0  0  0  0  0  0
   -4.1590   19.2790   71.0680 C   0  0  0  0  0  0  0  0  0  0  0  0
   -5.1130   18.6340   71.9320 O   0  0  0  0  0  0  0  0  0  0  0  0
   -3.0600   19.8960   71.7460 O   0  0  0  0  0  0  0  0  0  0  0  0
   -4.0500   20.7880   71.2010 C   0  0  0  0  0  0  0  0  0  0  0  0
   -4.9200   21.3890   72.1750 O   0  0  0  0  0  0  0  0  0  0  0  0
  -10.7580   15.6500   65.8230 O   0  0  0  0  0  0  0  0  0  0  0  0
  -10.6460   14.2960   65.3170 C   0  0  0  0  0  0  0  0  0  0  0  0
  -10.4980   13.3410   66.3650 O   0  0  0  0  0  0  0  0  0  0  0  0
  -10.3020   12.0440   65.8960 C   0  0  0  0  0  0  0  0  0  0  0  0
   -9.6060   11.1380   66.5940 C   0  0  0  0  0  0  0  0  0  0  0  0
  -10.8700   11.6130   64.5870 C   0  0  0  0  0  0  0  0  0  0  0  0
   -9.0360   11.4030   67.8130 O   0  0  0  0  0  0  0  0  0  0  0  0
  -11.9570   12.5440   64.0840 C   0  0  0  0  0  0  0  0  0  0  0  0
  -10.4470   10.6850   63.9230 O   0  0  0  0  0  0  0  0  0  0  0  0
  -11.8670   14.0050   64.4670 C   0  0  0  0  0  0  0  0  0  0  0  0
  -12.8690   12.1330   63.3900 O   0  0  0  0  0  0  0  0  0  0  0  0
  -12.6290   14.8570   64.0320 O   0  0  0  0  0  0  0  0  0  0  0  0
  -12.2320   15.5140   73.5710 C   0  0  0  0  0  0  0  0  0  0  0  0
  -12.0680   16.8620   74.0480 O   0  0  0  0  0  0  0  0  0  0  0  0
  -13.3460   16.2080   74.1610 O   0  0  0  0  0  0  0  0  0  0  0  0
  1 40  1  0  0  0  0
  1  2  2  0  0  0  0
  1  6  1  0  0  0  0
  2  3  1  0  0  0  0
  2 17  1  0  0  0  0
  3  4  1  0  0  0  0
  4  5  2  0  0  0  0
  4 15  1  0  0  0  0
  5  6  1  0  0  0  0
  5  7  1  0  0  0  0
  7  8  1  0  0  0  0
  7 13  1  0  0  0  0
  8  9  1  0  0  0  0
  9 10  2  0  0  0  0
  9 11  1  0  0  0  0
 11 12  1  0  0  0  0
 12 13  1  0  0  0  0
 12 16  1  0  0  0  0
 13 14  2  0  0  0  0
 14 15  1  0  0  0  0
 14 52  1  0  0  0  0
 17 18  2  0  0  0  0
 17 23  1  0  0  0  0
 18 19  1  0  0  0  0
 19 20  1  0  0  0  0
 19 21  2  0  0  0  0
 21 22  1  0  0  0  0
 22 23  2  0  0  0  0
 22 24  1  0  0  0  0
 23 25  1  0  0  0  0
 24 28  2  0  0  0  0
 24 34  1  0  0  0  0
 25 26  2  0  0  0  0
 26 27  1  0  0  0  0
 26 28  1  0  0  0  0
 27 29  2  0  0  0  0
 27 30  1  0  0  0  0
 28 33  1  0  0  0  0
 30 31  2  0  0  0  0
 30 32  1  0  0  0  0
 32 33  1  0  0  0  0
 32 35  1  0  0  0  0
 35 36  1  0  0  0  0
 35 37  1  0  0  0  0
 35 38  1  0  0  0  0
 37 38  1  0  0  0  0
 38 39  1  0  0  0  0
 40 41  1  0  0  0  0
 41 42  1  0  0  0  0
 41 49  1  0  0  0  0
 42 43  1  0  0  0  0
 43 44  2  0  0  0  0
 43 45  1  0  0  0  0
 44 46  1  0  0  0  0
 45 47  1  0  0  0  0
 45 48  2  0  0  0  0
 47 49  1  0  0  0  0
 47 50  2  0  0  0  0
 49 51  2  0  0  0  0
 52 53  1  0  0  0  0
 52 54  1  0  0  0  0
 53 54  1  0  0  0  0
M  CHG  2  15   1  19   1
M  END