
 OpenBabel11222023453D

 53 62  0  0  1  0  0  0  0  0999 V2000
   -9.6420   14.9550   68.2020 C   0  0  0  0  0  0  0  0  0  0  0  0
  -10.1170   16.2320   68.2790 C   0  0  0  0  0  0  0  0  0  0  0  0
  -11.2440   16.5660   69.0320 O   0  0  0  0  0  0  0  0  0  0  0  0
  -11.6650   15.5710   69.9760 C   0  0  0  0  0  0  0  0  0  0  0  0
  -11.7540   14.2010   69.3390 C   0  0  0  0  0  0  0  0  0  0  0  0
  -10.3730   13.8070   68.8580 C   0  0  0  0  0  0  0  0  0  0  0  0
  -12.2870   13.1960   70.3300 C   0  0  0  0  0  0  0  0  0  0  0  0
  -12.4290   11.9750   69.9560 N   0  0  0  0  0  0  0  0  0  0  0  0
  -12.9060   11.0470   70.8580 C   0  0  0  0  0  0  0  0  0  0  0  0
  -12.7070    9.8620   70.6480 O   0  0  0  0  0  0  0  0  0  0  0  0
  -13.5840   11.4400   71.9870 N   0  0  0  0  0  0  0  0  0  0  0  0
  -13.4590   12.6490   72.4080 C   0  0  0  0  0  0  0  0  0  0  0  0
  -12.6230   13.6790   71.7070 C   0  0  0  0  0  0  0  0  0  0  0  0
  -13.3640   15.0240   71.6010 C   0  0  0  0  0  0  0  0  0  0  0  0
  -12.9120   15.8830   70.5460 O   0  0  0  0  0  0  0  0  0  0  0  0
   -9.5050   17.3910   67.5330 C   0  0  0  0  0  0  0  0  0  0  0  0
  -10.3180   18.0920   66.6410 C   0  0  0  0  0  0  0  0  0  0  0  0
   -9.9220   19.2380   66.0840 N   0  0  0  0  0  0  0  0  0  0  0  0
  -10.7880   19.9180   65.3110 F   0  0  0  0  0  0  0  0  0  0  0  0
   -8.7330   19.7540   66.3050 N   0  0  0  0  0  0  0  0  0  0  0  0
   -7.8630   19.1140   67.0880 C   0  0  0  0  0  0  0  0  0  0  0  0
   -8.1740   17.8860   67.7140 C   0  0  0  0  0  0  0  0  0  0  0  0
   -6.6190   19.7110   67.3080 C   0  0  0  0  0  0  0  0  0  0  0  0
   -7.1320   17.2810   68.4820 C   0  0  0  0  0  0  0  0  0  0  0  0
   -5.8810   17.9000   68.6670 C   0  0  0  0  0  0  0  0  0  0  0  0
   -5.6380   19.1390   68.1140 C   0  0  0  0  0  0  0  0  0  0  0  0
   -4.8190   17.2420   69.4460 C   0  0  0  0  0  0  0  0  0  0  0  0
   -4.4630   19.8160   68.3040 O   0  0  0  0  0  0  0  0  0  0  0  0
   -3.8100   19.5080   69.5630 C   0  0  0  0  0  0  0  0  0  0  0  0
   -3.6110   18.0760   69.8520 C   0  0  0  0  0  0  0  0  0  0  0  0
   -2.7930   20.3900   69.9610 O   0  0  0  0  0  0  0  0  0  0  0  0
   -4.0200   20.4080   70.7510 C   0  0  0  0  0  0  0  0  0  0  0  0
   -2.6610   17.6070   70.4520 O   0  0  0  0  0  0  0  0  0  0  0  0
   -5.0890   21.3410   70.3740 O   0  0  0  0  0  0  0  0  0  0  0  0
   -4.1790   21.7580   71.2200 C   0  0  0  0  0  0  0  0  0  0  0  0
   -4.3060   22.2290   72.3450 O   0  0  0  0  0  0  0  0  0  0  0  0
   -4.9520   16.0690   69.7660 O   0  0  0  0  0  0  0  0  0  0  0  0
   -6.3680   20.9030   66.7440 F   0  0  0  0  0  0  0  0  0  0  0  0
   -8.4740   14.6400   67.5080 O   0  0  0  0  0  0  0  0  0  0  0  0
   -7.9740   13.2770   67.5870 C   0  0  0  0  0  0  0  0  0  0  0  0
   -8.6720   12.4470   66.6600 O   0  0  0  0  0  0  0  0  0  0  0  0
   -8.3510   11.1100   66.8010 C   0  0  0  0  0  0  0  0  0  0  0  0
   -9.2760   10.1410   66.7750 C   0  0  0  0  0  0  0  0  0  0  0  0
   -6.9300   10.7160   66.9780 C   0  0  0  0  0  0  0  0  0  0  0  0
  -10.6240   10.3760   66.6780 O   0  0  0  0  0  0  0  0  0  0  0  0
   -5.9740   11.8900   66.8990 C   0  0  0  0  0  0  0  0  0  0  0  0
   -6.5590    9.5920   67.2540 O   0  0  0  0  0  0  0  0  0  0  0  0
   -6.4800   13.2630   67.3010 C   0  0  0  0  0  0  0  0  0  0  0  0
   -4.8300   11.7440   66.5090 O   0  0  0  0  0  0  0  0  0  0  0  0
   -5.7430   14.2310   67.4360 O   0  0  0  0  0  0  0  0  0  0  0  0
  -13.3630   15.7840   72.9070 C   0  0  0  0  0  0  0  0  0  0  0  0
  -12.1640   16.5260   73.1410 O   0  0  0  0  0  0  0  0  0  0  0  0
  -12.4300   15.3130   73.8820 O   0  0  0  0  0  0  0  0  0  0  0  0
  1 39  1  0  0  0  0
  1  2  2  0  0  0  0
  1  6  1  0  0  0  0
  2  3  1  0  0  0  0
  2 16  1  0  0  0  0
  3  4  1  0  0  0  0
  4  5  1  0  0  0  0
  4 15  1  0  0  0  0
  5  6  1  0  0  0  0
  5  7  1  0  0  0  0
  7  8  2  0  0  0  0
  7 13  1  0  0  0  0
  8  9  1  0  0  0  0
  9 10  2  0  0  0  0
  9 11  1  0  0  0  0
 11 12  2  0  0  0  0
 12 13  1  0  0  0  0
 13 14  1  0  0  0  0
 14 15  1  0  0  0  0
 14 51  1  0  0  0  0
 16 17  2  0  0  0  0
 16 22  1  0  0  0  0
 17 18  1  0  0  0  0
 18 19  1  0  0  0  0
 18 20  2  0  0  0  0
 20 21  1  0  0  0  0
 21 22  2  0  0  0  0
 21 23  1  0  0  0  0
 22 24  1  0  0  0  0
 23 26  2  0  0  0  0
 23 38  1  0  0  0  0
 24 25  2  0  0  0  0
 25 26  1  0  0  0  0
 25 27  1  0  0  0  0
 26 28  1  0  0  0  0
 27 30  1  0  0  0  0
 27 37  2  0  0  0  0
 28 29  1  0  0  0  0
 29 30  1  0  0  0  0
 29 31  1  0  0  0  0
 29 32  1  0  0  0  0
 30 33  2  0  0  0  0
 31 32  1  0  0  0  0
 32 34  1  0  0  0  0
 32 35  1  0  0  0  0
 34 35  1  0  0  0  0
 35 36  2  0  0  0  0
 39 40  1  0  0  0  0
 40 41  1  0  0  0  0
 40 48  1  0  0  0  0
 41 42  1  0  0  0  0
 42 43  2  0  0  0  0
 42 44  1  0  0  0  0
 43 45  1  0  0  0  0
 44 46  1  0  0  0  0
 44 47  2  0  0  0  0
 46 48  1  0  0  0  0
 46 49  2  0  0  0  0
 48 50  2  0  0  0  0
 51 52  1  0  0  0  0
 51 53  1  0  0  0  0
 52 53  1  0  0  0  0
M  CHG  2  15   1  18   1
M  END