
 OpenBabel11142001323D

 52 60  0  0  1  0  0  0  0  0999 V2000
   -9.3310   15.4070   66.9060 C   0  0  0  0  0  0  0  0  0  0  0  0
   -9.7410   15.6760   68.1750 C   0  0  0  0  0  0  0  0  0  0  0  0
   -9.1800   16.7290   68.9330 O   0  0  0  0  0  0  0  0  0  0  0  0
   -8.2420   17.5900   68.3570 C   0  0  0  0  0  0  0  0  0  0  0  0
   -7.9000   17.4680   67.0740 C   0  0  0  0  0  0  0  0  0  0  0  0
   -8.3850   16.3680   66.2240 C   0  0  0  0  0  0  0  0  0  0  0  0
   -6.9970   18.4750   66.4570 C   0  0  0  0  0  0  0  0  0  0  0  0
   -6.7890   18.4530   65.1760 N   0  0  0  0  0  0  0  0  0  0  0  0
   -5.9560   19.4000   64.6640 C   0  0  0  0  0  0  0  0  0  0  0  0
   -5.8730   19.4260   63.3860 N   0  0  0  0  0  0  0  0  0  0  0  0
   -5.2070   20.3000   65.3530 N   0  0  0  0  0  0  0  0  0  0  0  0
   -5.4120   20.3230   66.6160 C   0  0  0  0  0  0  0  0  0  0  0  0
   -6.3530   19.4730   67.3540 C   0  0  0  0  0  0  0  0  0  0  0  0
   -6.6940   19.4690   68.6640 C   0  0  0  0  0  0  0  0  0  0  0  0
   -7.6640   18.5680   69.1280 N   0  0  0  0  0  0  0  0  0  0  0  0
   -4.6860   21.1900   67.3230 O   0  0  0  0  0  0  0  0  0  0  0  0
  -10.8790   15.0250   68.8910 C   0  0  0  0  0  0  0  0  0  0  0  0
  -11.7540   15.9120   69.4130 N   0  0  0  0  0  0  0  0  0  0  0  0
  -12.7140   15.5010   70.2090 N   0  0  0  0  0  0  0  0  0  0  0  0
  -12.8500   14.2400   70.5460 N   0  0  0  0  0  0  0  0  0  0  0  0
  -12.0190   13.3140   70.0600 C   0  0  0  0  0  0  0  0  0  0  0  0
  -10.9820   13.6630   69.1880 C   0  0  0  0  0  0  0  0  0  0  0  0
  -12.1770   11.9730   70.4480 C   0  0  0  0  0  0  0  0  0  0  0  0
  -10.1190   12.6500   68.7240 C   0  0  0  0  0  0  0  0  0  0  0  0
  -10.2880   11.3230   69.1500 C   0  0  0  0  0  0  0  0  0  0  0  0
  -11.3300   10.9510   70.0050 C   0  0  0  0  0  0  0  0  0  0  0  0
   -9.3090   10.3050   68.7460 C   0  0  0  0  0  0  0  0  0  0  0  0
  -11.5950    9.6160   70.4100 N   0  0  0  0  0  0  0  0  0  0  0  0
  -10.7330    8.6870   70.1320 C   0  0  0  0  0  0  0  0  0  0  0  0
   -9.4320    8.9810   69.4620 C   0  0  0  0  0  0  0  0  0  0  0  0
   -8.4780    8.2330   69.5950 O   0  0  0  0  0  0  0  0  0  0  0  0
   -8.4330   10.5300   67.9290 O   0  0  0  0  0  0  0  0  0  0  0  0
  -10.9570    7.2550   70.4490 C   0  0  0  0  0  0  0  0  0  0  0  0
  -10.3370    6.7750   71.6690 O   0  0  0  0  0  0  0  0  0  0  0  0
  -12.2650    6.7530   70.2390 O   0  0  0  0  0  0  0  0  0  0  0  0
  -11.3030    6.2960   69.4360 C   0  0  0  0  0  0  0  0  0  0  0  0
  -11.2470    6.3170   68.2080 O   0  0  0  0  0  0  0  0  0  0  0  0
   -9.7960   14.3220   66.1600 O   0  0  0  0  0  0  0  0  0  0  0  0
  -10.1780   14.5410   64.7790 C   0  0  0  0  0  0  0  0  0  0  0  0
  -10.0050   13.3410   63.9760 O   0  0  0  0  0  0  0  0  0  0  0  0
  -10.8300   12.2940   64.3740 C   0  0  0  0  0  0  0  0  0  0  0  0
  -10.7840   11.1070   63.7660 C   0  0  0  0  0  0  0  0  0  0  0  0
  -11.8870   12.5240   65.3990 C   0  0  0  0  0  0  0  0  0  0  0  0
   -9.9740   10.8280   62.6950 O   0  0  0  0  0  0  0  0  0  0  0  0
  -12.5500   13.8710   65.1650 C   0  0  0  0  0  0  0  0  0  0  0  0
  -12.1050   11.8210   66.3650 O   0  0  0  0  0  0  0  0  0  0  0  0
  -11.6430   14.9140   64.5600 C   0  0  0  0  0  0  0  0  0  0  0  0
  -13.7210   14.0870   65.4060 O   0  0  0  0  0  0  0  0  0  0  0  0
  -12.0560   15.8840   63.9480 O   0  0  0  0  0  0  0  0  0  0  0  0
   -6.1230   20.3760   69.7000 C   0  0  0  0  0  0  0  0  0  0  0  0
   -6.3550   20.1570   71.1000 O   0  0  0  0  0  0  0  0  0  0  0  0
   -5.0380   19.9570   70.5530 O   0  0  0  0  0  0  0  0  0  0  0  0
  1 38  1  0  0  0  0
  1  2  2  0  0  0  0
  1  6  1  0  0  0  0
  2  3  1  0  0  0  0
  2 17  1  0  0  0  0
  3  4  1  0  0  0  0
  4  5  2  0  0  0  0
  4 15  1  0  0  0  0
  5  6  1  0  0  0  0
  5  7  1  0  0  0  0
  7  8  2  0  0  0  0
  7 13  1  0  0  0  0
  8  9  1  0  0  0  0
  9 10  2  0  0  0  0
  9 11  1  0  0  0  0
 11 12  2  0  0  0  0
 12 13  1  0  0  0  0
 12 16  1  0  0  0  0
 13 14  2  0  0  0  0
 14 15  1  0  0  0  0
 14 50  1  0  0  0  0
 17 18  2  0  0  0  0
 17 22  1  0  0  0  0
 18 19  1  0  0  0  0
 19 20  2  0  0  0  0
 20 21  1  0  0  0  0
 21 22  2  0  0  0  0
 21 23  1  0  0  0  0
 22 24  1  0  0  0  0
 23 26  2  0  0  0  0
 24 25  2  0  0  0  0
 25 26  1  0  0  0  0
 25 27  1  0  0  0  0
 26 28  1  0  0  0  0
 27 30  1  0  0  0  0
 27 32  2  0  0  0  0
 28 29  2  0  0  0  0
 29 30  1  0  0  0  0
 29 33  1  0  0  0  0
 30 31  2  0  0  0  0
 33 34  1  0  0  0  0
 33 35  1  0  0  0  0
 33 36  1  0  0  0  0
 35 36  1  0  0  0  0
 36 37  2  0  0  0  0
 38 39  1  0  0  0  0
 39 40  1  0  0  0  0
 39 47  1  0  0  0  0
 40 41  1  0  0  0  0
 41 42  2  0  0  0  0
 41 43  1  0  0  0  0
 42 44  1  0  0  0  0
 43 45  1  0  0  0  0
 43 46  2  0  0  0  0
 45 47  1  0  0  0  0
 45 48  2  0  0  0  0
 47 49  2  0  0  0  0
 50 51  1  0  0  0  0
 50 52  1  0  0  0  0
 51 52  1  0  0  0  0
M  END
