
 OpenBabel11262000163D

 54 62  0  0  1  0  0  0  0  0999 V2000
  -11.1030   15.6590   67.2980 C   0  0  0  0  0  0  0  0  0  0  0  0
  -10.5250   16.6610   67.9910 C   0  0  0  0  0  0  0  0  0  0  0  0
  -10.6020   16.7740   69.3860 O   0  0  0  0  0  0  0  0  0  0  0  0
  -11.3220   15.8060   70.1190 C   0  0  0  0  0  0  0  0  0  0  0  0
  -11.8820   14.7500   69.4960 C   0  0  0  0  0  0  0  0  0  0  0  0
  -11.8400   14.5560   68.0090 C   0  0  0  0  0  0  0  0  0  0  0  0
  -12.6180   13.6710   70.2520 C   0  0  0  0  0  0  0  0  0  0  0  0
  -11.8580   12.4760   70.1660 O   0  0  0  0  0  0  0  0  0  0  0  0
  -12.3700   11.4230   70.8480 C   0  0  0  0  0  0  0  0  0  0  0  0
  -11.9130   10.2480   70.6670 N   0  0  0  0  0  0  0  0  0  0  0  0
  -13.3840   11.6590   71.7020 O   0  0  0  0  0  0  0  0  0  0  0  0
  -13.4970   12.9060   72.3770 C   0  0  0  0  0  0  0  0  0  0  0  0
  -12.7330   13.9840   71.6920 C   0  0  0  0  0  0  0  0  0  0  0  0
  -12.1930   15.0840   72.2570 C   0  0  0  0  0  0  0  0  0  0  0  0
  -11.4370   15.9630   71.4910 O   0  0  0  0  0  0  0  0  0  0  0  0
  -14.8370   13.3490   72.3330 O   0  0  0  0  0  0  0  0  0  0  0  0
   -9.7250   17.6950   67.2770 C   0  0  0  0  0  0  0  0  0  0  0  0
  -10.3840   18.7270   66.5970 C   0  0  0  0  0  0  0  0  0  0  0  0
   -9.6790   19.6040   65.8740 N   0  0  0  0  0  0  0  0  0  0  0  0
  -10.3220   20.5960   65.2230 F   0  0  0  0  0  0  0  0  0  0  0  0
   -8.3690   19.5220   65.7560 N   0  0  0  0  0  0  0  0  0  0  0  0
   -7.7130   18.5150   66.3630 C   0  0  0  0  0  0  0  0  0  0  0  0
   -8.3600   17.5810   67.1560 N   0  0  0  0  0  0  0  0  0  0  0  0
   -6.3330   18.3830   66.1670 C   0  0  0  0  0  0  0  0  0  0  0  0
   -7.6310   16.5850   67.7410 C   0  0  0  0  0  0  0  0  0  0  0  0
   -6.2650   16.4450   67.5070 C   0  0  0  0  0  0  0  0  0  0  0  0
   -5.5550   15.3090   68.0730 C   0  0  0  0  0  0  0  0  0  0  0  0
   -5.5960   17.3380   66.7090 C   0  0  0  0  0  0  0  0  0  0  0  0
   -6.1140   14.5920   68.8830 O   0  0  0  0  0  0  0  0  0  0  0  0
   -4.1630   15.0870   67.5350 C   0  0  0  0  0  0  0  0  0  0  0  0
   -3.8050   13.9540   67.2600 O   0  0  0  0  0  0  0  0  0  0  0  0
   -3.4290   16.3710   67.2070 C   0  0  0  0  0  0  0  0  0  0  0  0
   -4.2610   17.2760   66.4320 O   0  0  0  0  0  0  0  0  0  0  0  0
   -5.7070   19.3020   65.4180 F   0  0  0  0  0  0  0  0  0  0  0  0
   -2.8380   17.0430   68.4240 C   0  0  0  0  0  0  0  0  0  0  0  0
   -3.4920   18.2350   68.8820 O   0  0  0  0  0  0  0  0  0  0  0  0
   -2.3720   16.1620   69.4540 O   0  0  0  0  0  0  0  0  0  0  0  0
   -1.4310   16.8830   68.8120 C   0  0  0  0  0  0  0  0  0  0  0  0
   -0.4760   16.5560   68.1520 O   0  0  0  0  0  0  0  0  0  0  0  0
  -11.0450   15.6690   65.9150 O   0  0  0  0  0  0  0  0  0  0  0  0
  -10.6480   14.4800   65.1760 C   0  0  0  0  0  0  0  0  0  0  0  0
  -10.3880   13.4500   66.1120 O   0  0  0  0  0  0  0  0  0  0  0  0
  -10.0770   12.2630   65.4690 C   0  0  0  0  0  0  0  0  0  0  0  0
   -9.1010   11.4640   65.9100 C   0  0  0  0  0  0  0  0  0  0  0  0
  -10.8620   11.8600   64.2610 C   0  0  0  0  0  0  0  0  0  0  0  0
   -8.3230   11.7780   66.9940 O   0  0  0  0  0  0  0  0  0  0  0  0
  -12.0950   12.6880   64.0110 C   0  0  0  0  0  0  0  0  0  0  0  0
  -10.5110   10.9460   63.5270 O   0  0  0  0  0  0  0  0  0  0  0  0
  -11.8310   14.1550   64.2570 C   0  0  0  0  0  0  0  0  0  0  0  0
  -13.1300   12.3000   64.8140 F   0  0  0  0  0  0  0  0  0  0  0  0
  -12.5890   15.0520   63.8600 O   0  0  0  0  0  0  0  0  0  0  0  0
  -12.3450   15.4430   73.6890 C   0  0  0  0  0  0  0  0  0  0  0  0
  -11.9990   16.7520   74.1540 O   0  0  0  0  0  0  0  0  0  0  0  0
  -13.3820   16.3580   74.0910 O   0  0  0  0  0  0  0  0  0  0  0  0
  1 40  1  0  0  0  0
  1  2  2  0  0  0  0
  1  6  1  0  0  0  0
  2  3  1  0  0  0  0
  2 17  1  0  0  0  0
  3  4  1  0  0  0  0
  4  5  2  0  0  0  0
  4 15  1  0  0  0  0
  5  6  1  0  0  0  0
  5  7  1  0  0  0  0
  7  8  1  0  0  0  0
  7 13  1  0  0  0  0
  8  9  1  0  0  0  0
  9 10  2  0  0  0  0
  9 11  1  0  0  0  0
 11 12  1  0  0  0  0
 12 13  1  0  0  0  0
 12 16  1  0  0  0  0
 13 14  2  0  0  0  0
 14 15  1  0  0  0  0
 14 52  1  0  0  0  0
 17 18  2  0  0  0  0
 17 23  1  0  0  0  0
 18 19  1  0  0  0  0
 19 20  1  0  0  0  0
 19 21  2  0  0  0  0
 21 22  1  0  0  0  0
 22 23  2  0  0  0  0
 22 24  1  0  0  0  0
 23 25  1  0  0  0  0
 24 28  2  0  0  0  0
 24 34  1  0  0  0  0
 25 26  2  0  0  0  0
 26 27  1  0  0  0  0
 26 28  1  0  0  0  0
 27 29  2  0  0  0  0
 27 30  1  0  0  0  0
 28 33  1  0  0  0  0
 30 31  2  0  0  0  0
 30 32  1  0  0  0  0
 32 33  1  0  0  0  0
 32 35  1  0  0  0  0
 35 36  1  0  0  0  0
 35 37  1  0  0  0  0
 35 38  1  0  0  0  0
 37 38  1  0  0  0  0
 38 39  2  0  0  0  0
 40 41  1  0  0  0  0
 41 42  1  0  0  0  0
 41 49  1  0  0  0  0
 42 43  1  0  0  0  0
 43 44  2  0  0  0  0
 43 45  1  0  0  0  0
 44 46  1  0  0  0  0
 45 47  1  0  0  0  0
 45 48  2  0  0  0  0
 47 49  1  0  0  0  0
 47 50  1  0  0  0  0
 49 51  2  0  0  0  0
 52 53  1  0  0  0  0
 52 54  1  0  0  0  0
 53 54  1  0  0  0  0
M  CHG  3  15   1  19   1  23   1
M  END