
 OpenBabel10232015553D

 91106  0  0  1  0  0  0  0  0999 V2000
  -10.7520   13.8310   68.1420 C   0  0  0  0  0  0  0  0  0  0  0  0
   -9.5800   14.0130   68.9880 O   0  0  0  0  0  0  0  0  0  0  0  0
   -8.9680   15.2360   68.9650 C   0  0  0  0  0  0  0  0  0  0  0  0
   -9.5020   16.3290   68.2710 C   0  0  0  0  0  0  0  0  0  0  0  0
  -10.8970   16.3020   67.7420 C   0  0  0  0  0  0  0  0  0  0  0  0
  -11.6530   15.0880   68.2650 C   0  0  0  0  0  0  0  0  0  0  0  0
  -12.0200   15.3680   69.6280 O   0  0  0  0  0  0  0  0  0  0  0  0
  -11.5580   17.5270   68.0420 O   0  0  0  0  0  0  0  0  0  0  0  0
   -8.6510   17.3840   67.9960 C   0  0  0  0  0  0  0  0  0  0  0  0
   -7.2960   17.4120   68.3570 C   0  0  0  0  0  0  0  0  0  0  0  0
   -6.8590   16.4680   69.3380 C   0  0  0  0  0  0  0  0  0  0  0  0
   -7.7280   15.3820   69.5720 C   0  0  0  0  0  0  0  0  0  0  0  0
   -7.2660   14.3430   70.3170 F   0  0  0  0  0  0  0  0  0  0  0  0
   -5.5980   16.7200   69.8680 C   0  0  0  0  0  0  0  0  0  0  0  0
   -4.9630   15.7790   71.1870 Cl  0  0  0  0  0  0  0  0  0  0  0  0
   -4.7340   17.7360   69.3800 C   0  0  0  0  0  0  0  0  0  0  0  0
   -4.9750   18.4660   68.1950 C   0  0  0  0  0  0  0  0  0  0  0  0
   -6.3110   18.2390   67.7440 C   0  0  0  0  0  0  0  0  0  0  0  0
   -6.8210   18.6630   66.1070 Cl  0  0  0  0  0  0  0  0  0  0  0  0
   -3.8510   19.3350   67.5230 C   0  0  0  0  0  0  0  0  0  0  0  0
   -3.7740   19.4850   66.1050 C   0  0  0  0  0  0  0  0  0  0  0  0
   -2.6930   20.0850   65.2730 C   0  0  0  0  0  0  0  0  0  0  0  0
   -1.9360   20.9260   66.1290 N   0  0  0  0  0  0  0  0  0  0  0  0
   -2.2010   20.0570   63.7450 C   0  0  0  0  0  0  0  0  0  0  0  0
   -2.0620   20.9310   67.5080 N   0  0  0  0  0  0  0  0  0  0  0  0
   -1.0410   21.7710   65.6540 N   0  0  0  0  0  0  0  0  0  0  0  0
   -2.8050   20.0140   68.1910 C   0  0  0  0  0  0  0  0  0  0  0  0
   -1.2340   22.1800   68.3890 Cl  0  0  0  0  0  0  0  0  0  0  0  0
   -2.3950   19.7790   69.6250 C   0  0  0  0  0  0  0  0  0  0  0  0
   -0.6570   21.7790   64.3880 C   0  0  0  0  0  0  0  0  0  0  0  0
   -1.1520   20.9510   63.3890 C   0  0  0  0  0  0  0  0  0  0  0  0
   -0.3770   20.9210   62.2100 N   0  0  0  0  0  0  0  0  0  0  0  0
   -2.7990   19.0690   62.4840 N   0  0  0  0  0  0  0  0  0  0  0  0
   -3.5080   19.4970   61.3340 N   0  0  0  0  0  0  0  0  0  0  0  0
   -3.9430   21.1100   61.0360 Cl  0  0  0  0  0  0  0  0  0  0  0  0
   -3.8220   18.6680   60.2570 C   0  0  0  0  0  0  0  0  0  0  0  0
   -3.4850   17.3100   60.1420 C   0  0  0  0  0  0  0  0  0  0  0  0
   -2.8490   16.8150   61.2600 C   0  0  0  0  0  0  0  0  0  0  0  0
   -3.7780   16.4230   59.0590 N   0  0  0  0  0  0  0  0  0  0  0  0
   -2.5500   17.6650   62.4400 C   0  0  0  0  0  0  0  0  0  0  0  0
   -2.5510   15.5120   61.2350 N   0  0  0  0  0  0  0  0  0  0  0  0
   -2.0420   16.9580   63.5410 N   0  0  0  0  0  0  0  0  0  0  0  0
   -2.8910   14.6350   60.2690 N   0  0  0  0  0  0  0  0  0  0  0  0
   -3.5820   15.0320   59.1530 C   0  0  0  0  0  0  0  0  0  0  0  0
   -2.2080   13.0780   60.4710 Cl  0  0  0  0  0  0  0  0  0  0  0  0
   -4.1030   14.2500   58.1520 N   0  0  0  0  0  0  0  0  0  0  0  0
   -4.5370   14.7770   56.9870 C   0  0  0  0  0  0  0  0  0  0  0  0
   -4.4200   12.5750   58.3500 Cl  0  0  0  0  0  0  0  0  0  0  0  0
   -4.5250   16.1090   56.8040 N   0  0  0  0  0  0  0  0  0  0  0  0
   -4.2340   16.9210   57.8630 N   0  0  0  0  0  0  0  0  0  0  0  0
   -4.8060   16.6740   55.4020 C   0  0  0  0  0  0  0  0  0  0  0  0
   -6.2870   16.5380   55.0770 C   0  0  0  0  0  0  0  0  0  0  0  0
   -7.1440   17.6010   55.7520 C   0  0  0  0  0  0  0  0  0  0  0  0
   -6.6220   19.0050   55.4680 C   0  0  0  0  0  0  0  0  0  0  0  0
   -5.1700   19.1690   55.9000 C   0  0  0  0  0  0  0  0  0  0  0  0
   -4.2620   18.1010   55.2930 C   0  0  0  0  0  0  0  0  0  0  0  0
  -10.2990   13.2670   66.7170 C   0  0  0  0  0  0  0  0  0  0  0  0
  -11.2060   13.5470   65.4960 C   0  0  0  0  0  0  0  0  0  0  0  0
  -10.5420   13.1890   64.1510 C   0  0  0  0  0  0  0  0  0  0  0  0
   -9.9430   11.8120   64.1310 C   0  0  0  0  0  0  0  0  0  0  0  0
   -9.6580   11.1470   62.9170 C   0  0  0  0  0  0  0  0  0  0  0  0
   -9.6440   11.1680   65.3150 C   0  0  0  0  0  0  0  0  0  0  0  0
   -9.0280    9.8630   62.8220 C   0  0  0  0  0  0  0  0  0  0  0  0
   -8.6720    9.2610   64.0670 C   0  0  0  0  0  0  0  0  0  0  0  0
   -9.1320    9.8570   65.2690 C   0  0  0  0  0  0  0  0  0  0  0  0
   -7.7090    8.0830   64.2620 C   0  0  0  0  0  0  0  0  0  0  0  0
   -9.2260    9.0520   66.5600 C   0  0  0  0  0  0  0  0  0  0  0  0
   -9.0870    7.5590   66.3030 C   0  0  0  0  0  0  0  0  0  0  0  0
  -10.6150    9.3380   67.1270 C   0  0  0  0  0  0  0  0  0  0  0  0
   -7.7600    7.3450   65.6120 C   0  0  0  0  0  0  0  0  0  0  0  0
  -10.7290   10.8070   67.5000 C   0  0  0  0  0  0  0  0  0  0  0  0
   -9.8520   11.7720   66.6950 C   0  0  0  0  0  0  0  0  0  0  0  0
  -10.3600   10.9220   68.8060 F   0  0  0  0  0  0  0  0  0  0  0  0
   -6.0350    8.7470   64.1020 Cl  0  0  0  0  0  0  0  0  0  0  0  0
   -8.8410    9.2480   61.4420 C   0  0  0  0  0  0  0  0  0  0  0  0
   -9.8710    8.6180   60.7120 C   0  0  0  0  0  0  0  0  0  0  0  0
   -9.7280    8.0300   59.4270 C   0  0  0  0  0  0  0  0  0  0  0  0
  -10.9320    7.3810   58.7230 C   0  0  0  0  0  0  0  0  0  0  0  0
   -8.4770    8.0910   58.7990 C   0  0  0  0  0  0  0  0  0  0  0  0
  -12.0300    6.7680   59.6150 C   0  0  0  0  0  0  0  0  0  0  0  0
  -10.4840    6.3070   57.6980 C   0  0  0  0  0  0  0  0  0  0  0  0
  -11.5660    5.5040   60.3300 C   0  0  0  0  0  0  0  0  0  0  0  0
  -11.0640    4.4580   59.3390 C   0  0  0  0  0  0  0  0  0  0  0  0
   -9.9800    5.0150   58.3990 C   0  0  0  0  0  0  0  0  0  0  0  0
   -9.5670    3.9280   57.4040 C   0  0  0  0  0  0  0  0  0  0  0  0
   -9.4870    6.9570   56.7380 C   0  0  0  0  0  0  0  0  0  0  0  0
   -8.2160    7.4550   57.4400 C   0  0  0  0  0  0  0  0  0  0  0  0
   -7.4780    8.4050   56.4860 C   0  0  0  0  0  0  0  0  0  0  0  0
   -7.4200    8.6790   59.5040 C   0  0  0  0  0  0  0  0  0  0  0  0
   -7.6020    9.2490   60.7720 C   0  0  0  0  0  0  0  0  0  0  0  0
   -6.5090    9.8250   61.3120 F   0  0  0  0  0  0  0  0  0  0  0  0
  1 57  1  0  0  0  0
  1  2  1  0  0  0  0
  1  6  1  0  0  0  0
  2  3  1  0  0  0  0
  3  4  2  0  0  0  0
  3 12  1  0  0  0  0
  4  5  1  0  0  0  0
  4  9  1  0  0  0  0
  5  6  1  0  0  0  0
  5  8  1  0  0  0  0
  6  7  1  0  0  0  0
  9 10  2  0  0  0  0
 10 11  1  0  0  0  0
 10 18  1  0  0  0  0
 11 12  2  0  0  0  0
 11 14  1  0  0  0  0
 12 13  1  0  0  0  0
 14 15  1  0  0  0  0
 14 16  2  0  0  0  0
 16 17  1  0  0  0  0
 17 18  2  0  0  0  0
 17 20  1  0  0  0  0
 18 19  1  0  0  0  0
 20 21  2  0  0  0  0
 20 27  1  0  0  0  0
 21 22  1  0  0  0  0
 22 23  2  0  0  0  0
 22 24  1  0  0  0  0
 23 25  1  0  0  0  0
 23 26  1  0  0  0  0
 24 31  2  0  0  0  0
 24 33  1  0  0  0  0
 25 27  2  0  0  0  0
 25 28  1  0  0  0  0
 26 30  2  0  0  0  0
 27 29  1  0  0  0  0
 30 31  1  0  0  0  0
 31 32  1  0  0  0  0
 33 34  2  0  0  0  0
 33 40  1  0  0  0  0
 34 35  1  0  0  0  0
 34 36  1  0  0  0  0
 36 37  2  0  0  0  0
 37 38  1  0  0  0  0
 37 39  1  0  0  0  0
 38 40  2  0  0  0  0
 38 41  1  0  0  0  0
 39 44  2  0  0  0  0
 39 50  1  0  0  0  0
 40 42  1  0  0  0  0
 41 43  2  0  0  0  0
 43 44  1  0  0  0  0
 43 45  1  0  0  0  0
 44 46  1  0  0  0  0
 46 47  2  0  0  0  0
 46 48  1  0  0  0  0
 47 49  1  0  0  0  0
 49 50  2  0  0  0  0
 49 51  1  0  0  0  0
 51 52  1  0  0  0  0
 51 56  1  0  0  0  0
 52 53  1  0  0  0  0
 53 54  1  0  0  0  0
 54 55  1  0  0  0  0
 55 56  1  0  0  0  0
 57 58  1  0  0  0  0
 57 72  1  0  0  0  0
 58 59  1  0  0  0  0
 59 60  1  0  0  0  0
 60 61  1  0  0  0  0
 60 62  2  0  0  0  0
 61 63  2  0  0  0  0
 62 72  1  0  0  0  0
 62 65  1  0  0  0  0
 63 75  1  0  0  0  0
 63 64  1  0  0  0  0
 64 65  2  0  0  0  0
 64 66  1  0  0  0  0
 65 67  1  0  0  0  0
 66 74  1  0  0  0  0
 66 70  1  0  0  0  0
 67 68  1  0  0  0  0
 67 69  1  0  0  0  0
 68 70  1  0  0  0  0
 69 71  1  0  0  0  0
 71 72  1  0  0  0  0
 71 73  1  0  0  0  0
 75 76  2  0  0  0  0
 75 90  1  0  0  0  0
 76 77  1  0  0  0  0
 77 78  1  0  0  0  0
 77 79  2  0  0  0  0
 78 80  1  0  0  0  0
 78 81  1  0  0  0  0
 79 87  1  0  0  0  0
 79 89  1  0  0  0  0
 80 82  1  0  0  0  0
 81 84  1  0  0  0  0
 81 86  1  0  0  0  0
 82 83  1  0  0  0  0
 83 84  1  0  0  0  0
 84 85  1  0  0  0  0
 86 87  1  0  0  0  0
 87 88  1  0  0  0  0
 89 90  2  0  0  0  0
 90 91  1  0  0  0  0
M  CHG  8  23   1  25   1  33   1  34   1  43   1  39   1  49   1  46   1
M  END