
 OpenBabel10192023013D

 55 62  0  0  1  0  0  0  0  0999 V2000
   -9.9420   15.5180   67.7350 C   0  0  0  0  0  0  0  0  0  0  0  0
  -10.6200   14.5700   68.4720 N   0  0  0  0  0  0  0  0  0  0  0  0
  -11.2140   14.9130   69.6650 C   0  0  0  0  0  0  0  0  0  0  0  0
  -11.1350   16.1580   70.1750 C   0  0  0  0  0  0  0  0  0  0  0  0
  -10.4360   17.1460   69.4680 O   0  0  0  0  0  0  0  0  0  0  0  0
   -9.8490   16.7810   68.2350 C   0  0  0  0  0  0  0  0  0  0  0  0
  -11.7090   16.4850   71.3800 N   0  0  0  0  0  0  0  0  0  0  0  0
  -12.3810   15.5520   72.1790 C   0  0  0  0  0  0  0  0  0  0  0  0
  -12.5160   14.2780   71.7510 C   0  0  0  0  0  0  0  0  0  0  0  0
  -11.9510   13.8780   70.4410 C   0  0  0  0  0  0  0  0  0  0  0  0
  -12.0580   12.6770   69.9740 N   0  0  0  0  0  0  0  0  0  0  0  0
  -12.7320   11.7310   70.7160 C   0  0  0  0  0  0  0  0  0  0  0  0
  -12.8530   10.6090   70.2380 O   0  0  0  0  0  0  0  0  0  0  0  0
  -13.2650   11.9830   71.9650 N   0  0  0  0  0  0  0  0  0  0  0  0
  -13.1710   13.1710   72.4550 C   0  0  0  0  0  0  0  0  0  0  0  0
   -9.1710   17.8900   67.5440 C   0  0  0  0  0  0  0  0  0  0  0  0
   -9.9920   18.6030   66.7460 N   0  0  0  0  0  0  0  0  0  0  0  0
   -9.4370   19.6110   66.0730 C   0  0  0  0  0  0  0  0  0  0  0  0
  -10.2390   20.3490   65.2940 F   0  0  0  0  0  0  0  0  0  0  0  0
   -8.1500   19.9640   66.1300 N   0  0  0  0  0  0  0  0  0  0  0  0
   -7.3440   19.2620   66.9360 C   0  0  0  0  0  0  0  0  0  0  0  0
   -7.8060   18.1920   67.7130 C   0  0  0  0  0  0  0  0  0  0  0  0
   -5.9950   19.6110   67.0220 C   0  0  0  0  0  0  0  0  0  0  0  0
   -6.8930   17.5410   68.5850 C   0  0  0  0  0  0  0  0  0  0  0  0
   -7.3460   16.5600   69.3790 F   0  0  0  0  0  0  0  0  0  0  0  0
   -5.5510   17.9250   68.6630 C   0  0  0  0  0  0  0  0  0  0  0  0
   -4.6040   17.2560   69.5630 C   0  0  0  0  0  0  0  0  0  0  0  0
   -5.0970   18.9660   67.8760 C   0  0  0  0  0  0  0  0  0  0  0  0
   -4.9000   16.2560   70.1950 O   0  0  0  0  0  0  0  0  0  0  0  0
   -3.2290   17.8750   69.7200 C   0  0  0  0  0  0  0  0  0  0  0  0
   -2.3850   17.3460   70.4300 O   0  0  0  0  0  0  0  0  0  0  0  0
   -3.0530   19.2210   69.0630 C   0  0  0  0  0  0  0  0  0  0  0  0
   -3.8030   19.4050   67.8600 O   0  0  0  0  0  0  0  0  0  0  0  0
   -5.5360   20.6320   66.2780 F   0  0  0  0  0  0  0  0  0  0  0  0
   -3.3430   20.3380   70.0230 C   0  0  0  0  0  0  0  0  0  0  0  0
   -4.6070   21.0240   69.8550 O   0  0  0  0  0  0  0  0  0  0  0  0
   -2.9710   20.1300   71.3840 O   0  0  0  0  0  0  0  0  0  0  0  0
   -2.2490   21.0380   70.6910 C   0  0  0  0  0  0  0  0  0  0  0  0
   -1.0630   21.0820   70.4770 O   0  0  0  0  0  0  0  0  0  0  0  0
   -9.3830   15.1970   66.5120 O   0  0  0  0  0  0  0  0  0  0  0  0
  -10.0650   14.2200   65.7160 C   0  0  0  0  0  0  0  0  0  0  0  0
  -10.6730   13.2280   66.5390 O   0  0  0  0  0  0  0  0  0  0  0  0
  -11.3160   12.2360   65.8200 C   0  0  0  0  0  0  0  0  0  0  0  0
  -11.1310   10.9420   66.1040 C   0  0  0  0  0  0  0  0  0  0  0  0
  -12.2380   12.5780   64.7040 C   0  0  0  0  0  0  0  0  0  0  0  0
  -10.2700   10.5240   67.0840 O   0  0  0  0  0  0  0  0  0  0  0  0
  -12.0270   13.9680   64.1480 C   0  0  0  0  0  0  0  0  0  0  0  0
  -13.0660   11.8140   64.2370 O   0  0  0  0  0  0  0  0  0  0  0  0
  -11.1190   14.9300   64.8760 C   0  0  0  0  0  0  0  0  0  0  0  0
  -12.5200   14.2860   63.0770 O   0  0  0  0  0  0  0  0  0  0  0  0
  -11.2300   16.1380   64.7190 O   0  0  0  0  0  0  0  0  0  0  0  0
  -12.9310   15.9920   73.5200 C   0  0  0  0  0  0  0  0  0  0  0  0
  -12.7980   15.0220   74.4600 F   0  0  0  0  0  0  0  0  0  0  0  0
  -12.2930   17.0930   73.9840 F   0  0  0  0  0  0  0  0  0  0  0  0
  -14.2490   16.2950   73.4400 F   0  0  0  0  0  0  0  0  0  0  0  0
  1 40  1  0  0  0  0
  1  2  1  0  0  0  0
  1  6  2  0  0  0  0
  2  3  1  0  0  0  0
  3  4  2  0  0  0  0
  3 10  1  0  0  0  0
  4  5  1  0  0  0  0
  4  7  1  0  0  0  0
  5  6  1  0  0  0  0
  6 16  1  0  0  0  0
  7  8  1  0  0  0  0
  8  9  2  0  0  0  0
  8 52  1  0  0  0  0
  9 10  1  0  0  0  0
  9 15  1  0  0  0  0
 10 11  2  0  0  0  0
 11 12  1  0  0  0  0
 12 13  2  0  0  0  0
 12 14  1  0  0  0  0
 14 15  2  0  0  0  0
 16 17  2  0  0  0  0
 16 22  1  0  0  0  0
 17 18  1  0  0  0  0
 18 19  1  0  0  0  0
 18 20  2  0  0  0  0
 20 21  1  0  0  0  0
 21 22  2  0  0  0  0
 21 23  1  0  0  0  0
 22 24  1  0  0  0  0
 23 28  2  0  0  0  0
 23 34  1  0  0  0  0
 24 25  1  0  0  0  0
 24 26  2  0  0  0  0
 26 27  1  0  0  0  0
 26 28  1  0  0  0  0
 27 29  2  0  0  0  0
 27 30  1  0  0  0  0
 28 33  1  0  0  0  0
 30 31  2  0  0  0  0
 30 32  1  0  0  0  0
 32 33  1  0  0  0  0
 32 35  1  0  0  0  0
 35 36  1  0  0  0  0
 35 37  1  0  0  0  0
 35 38  1  0  0  0  0
 37 38  1  0  0  0  0
 38 39  2  0  0  0  0
 40 41  1  0  0  0  0
 41 42  1  0  0  0  0
 41 49  1  0  0  0  0
 42 43  1  0  0  0  0
 43 44  2  0  0  0  0
 43 45  1  0  0  0  0
 44 46  1  0  0  0  0
 45 47  1  0  0  0  0
 45 48  2  0  0  0  0
 47 49  1  0  0  0  0
 47 50  2  0  0  0  0
 49 51  2  0  0  0  0
 52 53  1  0  0  0  0
 52 54  1  0  0  0  0
 52 55  1  0  0  0  0
M  END
