
 OpenBabel09232009513D

 51 59  0  0  1  0  0  0  0  0999 V2000
  -10.5670   15.5480   67.4290 C   0  0  0  0  0  0  0  0  0  0  0  0
  -10.6970   16.7290   68.0660 C   0  0  0  0  0  0  0  0  0  0  0  0
  -11.4510   16.9020   69.2140 O   0  0  0  0  0  0  0  0  0  0  0  0
  -11.8860   15.7880   69.8990 C   0  0  0  0  0  0  0  0  0  0  0  0
  -11.7740   14.5120   69.3790 C   0  0  0  0  0  0  0  0  0  0  0  0
  -11.2030   14.3070   68.0120 C   0  0  0  0  0  0  0  0  0  0  0  0
  -12.2160   13.4630   70.1880 C   0  0  0  0  0  0  0  0  0  0  0  0
  -12.1810   12.1370   69.7370 N   0  0  0  0  0  0  0  0  0  0  0  0
  -12.6920   11.0750   70.4140 C   0  0  0  0  0  0  0  0  0  0  0  0
  -12.6780    9.9520   69.9250 O   0  0  0  0  0  0  0  0  0  0  0  0
  -13.2440   11.3230   71.6250 N   0  0  0  0  0  0  0  0  0  0  0  0
  -13.0650   12.5510   72.3540 C   0  0  0  0  0  0  0  0  0  0  0  0
  -12.6980   13.7110   71.4770 C   0  0  0  0  0  0  0  0  0  0  0  0
  -12.7390   15.0320   71.9390 C   0  0  0  0  0  0  0  0  0  0  0  0
  -12.3560   16.0590   71.1290 N   0  0  0  0  0  0  0  0  0  0  0  0
  -10.0300   17.9740   67.6250 C   0  0  0  0  0  0  0  0  0  0  0  0
  -10.8230   18.8130   66.9250 N   0  0  0  0  0  0  0  0  0  0  0  0
  -10.2780   19.9770   66.5930 C   0  0  0  0  0  0  0  0  0  0  0  0
   -9.0470   20.3600   66.9150 N   0  0  0  0  0  0  0  0  0  0  0  0
   -8.3080   19.4950   67.6130 C   0  0  0  0  0  0  0  0  0  0  0  0
   -8.7480   18.2490   67.9860 N   0  0  0  0  0  0  0  0  0  0  0  0
   -7.0190   19.8840   67.9680 C   0  0  0  0  0  0  0  0  0  0  0  0
   -7.9240   17.4030   68.6550 C   0  0  0  0  0  0  0  0  0  0  0  0
   -6.6430   17.8010   69.0340 C   0  0  0  0  0  0  0  0  0  0  0  0
   -6.1830   19.0510   68.7010 C   0  0  0  0  0  0  0  0  0  0  0  0
   -5.7860   16.8960   69.7820 C   0  0  0  0  0  0  0  0  0  0  0  0
   -4.9570   19.5350   69.0510 O   0  0  0  0  0  0  0  0  0  0  0  0
   -4.3270   18.9530   70.2120 C   0  0  0  0  0  0  0  0  0  0  0  0
   -4.4850   17.4480   70.3250 C   0  0  0  0  0  0  0  0  0  0  0  0
   -3.6720   16.6950   70.8380 O   0  0  0  0  0  0  0  0  0  0  0  0
   -6.1430   15.7420   69.9500 O   0  0  0  0  0  0  0  0  0  0  0  0
   -4.7070   19.6660   71.4910 C   0  0  0  0  0  0  0  0  0  0  0  0
   -5.8270   19.1360   72.2190 O   0  0  0  0  0  0  0  0  0  0  0  0
   -3.6010   20.0730   72.3160 O   0  0  0  0  0  0  0  0  0  0  0  0
   -4.3490   21.0440   71.7850 C   0  0  0  0  0  0  0  0  0  0  0  0
   -4.0710   21.9810   71.0530 O   0  0  0  0  0  0  0  0  0  0  0  0
   -9.7240   15.4250   66.3380 O   0  0  0  0  0  0  0  0  0  0  0  0
   -9.6950   14.1670   65.6360 C   0  0  0  0  0  0  0  0  0  0  0  0
   -9.5990   13.0860   66.5550 O   0  0  0  0  0  0  0  0  0  0  0  0
   -9.6060   11.8200   65.9840 C   0  0  0  0  0  0  0  0  0  0  0  0
   -9.0130   10.7780   66.5880 C   0  0  0  0  0  0  0  0  0  0  0  0
  -10.3060   11.5460   64.6870 C   0  0  0  0  0  0  0  0  0  0  0  0
   -8.0070   10.9030   68.3720 I   0  0  0  0  0  0  0  0  0  0  0  0
  -11.0530   12.7350   64.1140 C   0  0  0  0  0  0  0  0  0  0  0  0
  -10.2650   10.4770   64.1040 O   0  0  0  0  0  0  0  0  0  0  0  0
  -10.9850   14.0430   64.8530 C   0  0  0  0  0  0  0  0  0  0  0  0
  -11.6360   12.6700   63.0460 O   0  0  0  0  0  0  0  0  0  0  0  0
  -11.8770   14.8760   64.7970 O   0  0  0  0  0  0  0  0  0  0  0  0
  -13.1780   15.3660   73.3450 C   0  0  0  0  0  0  0  0  0  0  0  0
  -12.2120   15.1730   74.3910 O   0  0  0  0  0  0  0  0  0  0  0  0
  -12.5820   16.5060   73.9840 O   0  0  0  0  0  0  0  0  0  0  0  0
  1 37  1  0  0  0  0
  1  2  2  0  0  0  0
  1  6  1  0  0  0  0
  2  3  1  0  0  0  0
  2 16  1  0  0  0  0
  3  4  1  0  0  0  0
  4  5  2  0  0  0  0
  4 15  1  0  0  0  0
  5  6  1  0  0  0  0
  5  7  1  0  0  0  0
  7  8  1  0  0  0  0
  7 13  2  0  0  0  0
  8  9  1  0  0  0  0
  9 10  2  0  0  0  0
  9 11  1  0  0  0  0
 11 12  1  0  0  0  0
 12 13  1  0  0  0  0
 13 14  1  0  0  0  0
 14 15  2  0  0  0  0
 14 49  1  0  0  0  0
 16 17  2  0  0  0  0
 16 21  1  0  0  0  0
 17 18  1  0  0  0  0
 18 19  2  0  0  0  0
 19 20  1  0  0  0  0
 20 21  2  0  0  0  0
 20 22  1  0  0  0  0
 21 23  1  0  0  0  0
 22 25  2  0  0  0  0
 23 24  2  0  0  0  0
 24 25  1  0  0  0  0
 24 26  1  0  0  0  0
 25 27  1  0  0  0  0
 26 29  1  0  0  0  0
 26 31  2  0  0  0  0
 27 28  1  0  0  0  0
 28 29  1  0  0  0  0
 28 32  1  0  0  0  0
 29 30  2  0  0  0  0
 32 33  1  0  0  0  0
 32 34  1  0  0  0  0
 32 35  1  0  0  0  0
 34 35  1  0  0  0  0
 35 36  2  0  0  0  0
 37 38  1  0  0  0  0
 38 39  1  0  0  0  0
 38 46  1  0  0  0  0
 39 40  1  0  0  0  0
 40 41  2  0  0  0  0
 40 42  1  0  0  0  0
 41 43  1  0  0  0  0
 42 44  1  0  0  0  0
 42 45  2  0  0  0  0
 44 46  1  0  0  0  0
 44 47  2  0  0  0  0
 46 48  2  0  0  0  0
 49 50  1  0  0  0  0
 49 51  1  0  0  0  0
 50 51  1  0  0  0  0
M  CHG  1  21   1
M  END