
 OpenBabel11242001203D

 53 61  0  0  1  0  0  0  0  0999 V2000
   -9.9160   15.4690   67.7990 C   0  0  0  0  0  0  0  0  0  0  0  0
   -9.9870   16.6870   68.3750 C   0  0  0  0  0  0  0  0  0  0  0  0
  -10.4750   16.9090   69.6550 O   0  0  0  0  0  0  0  0  0  0  0  0
  -11.1060   15.8780   70.3170 C   0  0  0  0  0  0  0  0  0  0  0  0
  -11.1050   14.5910   69.8270 C   0  0  0  0  0  0  0  0  0  0  0  0
  -10.3930   14.2480   68.5560 C   0  0  0  0  0  0  0  0  0  0  0  0
  -11.8310   13.6570   70.5570 C   0  0  0  0  0  0  0  0  0  0  0  0
  -11.8290   12.3280   70.1170 O   0  0  0  0  0  0  0  0  0  0  0  0
  -12.7970   11.4100   70.5270 C   0  0  0  0  0  0  0  0  0  0  0  0
  -12.8920   10.3140   69.9930 O   0  0  0  0  0  0  0  0  0  0  0  0
  -13.6420   11.8250   71.5020 O   0  0  0  0  0  0  0  0  0  0  0  0
  -13.3150   12.9180   72.3690 C   0  0  0  0  0  0  0  0  0  0  0  0
  -12.5540   14.0000   71.6880 C   0  0  0  0  0  0  0  0  0  0  0  0
  -12.4860   15.3230   72.1370 C   0  0  0  0  0  0  0  0  0  0  0  0
  -11.7400   16.2430   71.4520 N   0  0  0  0  0  0  0  0  0  0  0  0
   -9.5280   17.9370   67.7330 C   0  0  0  0  0  0  0  0  0  0  0  0
  -10.3430   18.5140   66.7660 C   0  0  0  0  0  0  0  0  0  0  0  0
   -9.9260   19.5800   66.0750 N   0  0  0  0  0  0  0  0  0  0  0  0
  -10.7400   20.1200   65.1470 F   0  0  0  0  0  0  0  0  0  0  0  0
   -8.7270   20.1070   66.2320 N   0  0  0  0  0  0  0  0  0  0  0  0
   -7.8830   19.5780   67.1230 C   0  0  0  0  0  0  0  0  0  0  0  0
   -8.2480   18.4960   67.9440 C   0  0  0  0  0  0  0  0  0  0  0  0
   -6.5850   20.0860   67.2170 C   0  0  0  0  0  0  0  0  0  0  0  0
   -7.3030   18.0170   68.8850 C   0  0  0  0  0  0  0  0  0  0  0  0
   -6.0010   18.5450   68.9380 C   0  0  0  0  0  0  0  0  0  0  0  0
   -5.0100   17.9740   69.8530 C   0  0  0  0  0  0  0  0  0  0  0  0
   -5.6260   19.5740   68.0960 C   0  0  0  0  0  0  0  0  0  0  0  0
   -5.3260   17.1710   70.7140 O   0  0  0  0  0  0  0  0  0  0  0  0
   -3.5800   18.4170   69.6600 C   0  0  0  0  0  0  0  0  0  0  0  0
   -2.6560   17.6900   69.9900 O   0  0  0  0  0  0  0  0  0  0  0  0
   -3.4320   19.7950   69.0600 C   0  0  0  0  0  0  0  0  0  0  0  0
   -4.3770   20.1190   68.0320 O   0  0  0  0  0  0  0  0  0  0  0  0
   -6.2370   21.0980   66.4040 F   0  0  0  0  0  0  0  0  0  0  0  0
   -3.4470   20.8590   70.1190 C   0  0  0  0  0  0  0  0  0  0  0  0
   -4.7150   21.5070   70.3670 O   0  0  0  0  0  0  0  0  0  0  0  0
   -2.6820   20.5900   71.2950 O   0  0  0  0  0  0  0  0  0  0  0  0
   -2.2340   21.5680   70.4960 C   0  0  0  0  0  0  0  0  0  0  0  0
   -1.1630   21.7150   69.9360 O   0  0  0  0  0  0  0  0  0  0  0  0
   -9.3580   15.3210   66.5380 O   0  0  0  0  0  0  0  0  0  0  0  0
   -9.9010   14.3120   65.6560 C   0  0  0  0  0  0  0  0  0  0  0  0
  -10.0350   13.0630   66.3240 O   0  0  0  0  0  0  0  0  0  0  0  0
  -10.8260   12.0830   65.7430 C   0  0  0  0  0  0  0  0  0  0  0  0
  -10.8020   10.8350   66.2290 C   0  0  0  0  0  0  0  0  0  0  0  0
  -11.7970   12.3620   64.6420 C   0  0  0  0  0  0  0  0  0  0  0  0
   -9.9920   10.4740   67.2740 O   0  0  0  0  0  0  0  0  0  0  0  0
  -11.9210   13.8270   64.2930 C   0  0  0  0  0  0  0  0  0  0  0  0
  -12.4630   11.5120   64.0750 O   0  0  0  0  0  0  0  0  0  0  0  0
  -11.2550   14.8160   65.2020 C   0  0  0  0  0  0  0  0  0  0  0  0
  -12.4740   14.2090   63.2770 O   0  0  0  0  0  0  0  0  0  0  0  0
  -11.7980   15.8600   65.5300 O   0  0  0  0  0  0  0  0  0  0  0  0
  -13.1970   15.8010   73.3830 C   0  0  0  0  0  0  0  0  0  0  0  0
  -12.5880   15.4820   74.6450 O   0  0  0  0  0  0  0  0  0  0  0  0
  -12.5910   16.8400   74.1690 O   0  0  0  0  0  0  0  0  0  0  0  0
  1 39  1  0  0  0  0
  1  2  2  0  0  0  0
  1  6  1  0  0  0  0
  2  3  1  0  0  0  0
  2 16  1  0  0  0  0
  3  4  1  0  0  0  0
  4  5  2  0  0  0  0
  4 15  1  0  0  0  0
  5  6  1  0  0  0  0
  5  7  1  0  0  0  0
  7  8  1  0  0  0  0
  7 13  2  0  0  0  0
  8  9  1  0  0  0  0
  9 10  2  0  0  0  0
  9 11  1  0  0  0  0
 11 12  1  0  0  0  0
 12 13  1  0  0  0  0
 13 14  1  0  0  0  0
 14 15  2  0  0  0  0
 14 51  1  0  0  0  0
 16 17  2  0  0  0  0
 16 22  1  0  0  0  0
 17 18  1  0  0  0  0
 18 19  1  0  0  0  0
 18 20  2  0  0  0  0
 20 21  1  0  0  0  0
 21 22  2  0  0  0  0
 21 23  1  0  0  0  0
 22 24  1  0  0  0  0
 23 27  2  0  0  0  0
 23 33  1  0  0  0  0
 24 25  2  0  0  0  0
 25 26  1  0  0  0  0
 25 27  1  0  0  0  0
 26 28  2  0  0  0  0
 26 29  1  0  0  0  0
 27 32  1  0  0  0  0
 29 30  2  0  0  0  0
 29 31  1  0  0  0  0
 31 32  1  0  0  0  0
 31 34  1  0  0  0  0
 34 35  1  0  0  0  0
 34 36  1  0  0  0  0
 34 37  1  0  0  0  0
 36 37  1  0  0  0  0
 37 38  2  0  0  0  0
 39 40  1  0  0  0  0
 40 41  1  0  0  0  0
 40 48  1  0  0  0  0
 41 42  1  0  0  0  0
 42 43  2  0  0  0  0
 42 44  1  0  0  0  0
 43 45  1  0  0  0  0
 44 46  1  0  0  0  0
 44 47  2  0  0  0  0
 46 48  1  0  0  0  0
 46 49  2  0  0  0  0
 48 50  2  0  0  0  0
 51 52  1  0  0  0  0
 51 53  1  0  0  0  0
 52 53  1  0  0  0  0
M  CHG  1  18   1
M  END