
 OpenBabel10252011453D

 93108  0  0  1  0  0  0  0  0999 V2000
  -10.3060   14.1050   68.3400 C   0  0  0  0  0  0  0  0  0  0  0  0
   -9.0590   14.1090   69.1120 O   0  0  0  0  0  0  0  0  0  0  0  0
   -8.1100   15.0810   68.8660 C   0  0  0  0  0  0  0  0  0  0  0  0
   -8.2240   15.9880   67.8480 C   0  0  0  0  0  0  0  0  0  0  0  0
   -9.5250   16.1370   67.1020 C   0  0  0  0  0  0  0  0  0  0  0  0
  -10.1460   14.7480   66.9420 C   0  0  0  0  0  0  0  0  0  0  0  0
  -10.3320   17.0480   67.8350 O   0  0  0  0  0  0  0  0  0  0  0  0
   -7.1360   16.8420   67.5370 C   0  0  0  0  0  0  0  0  0  0  0  0
   -5.9760   16.9060   68.3400 C   0  0  0  0  0  0  0  0  0  0  0  0
   -5.9270   16.1050   69.4860 C   0  0  0  0  0  0  0  0  0  0  0  0
   -6.9710   15.1260   69.6930 C   0  0  0  0  0  0  0  0  0  0  0  0
   -6.8730   14.2990   70.7230 F   0  0  0  0  0  0  0  0  0  0  0  0
   -4.8510   16.3510   70.3520 C   0  0  0  0  0  0  0  0  0  0  0  0
   -4.5680   15.4740   71.8110 Cl  0  0  0  0  0  0  0  0  0  0  0  0
   -3.9480   17.4190   70.1170 C   0  0  0  0  0  0  0  0  0  0  0  0
   -3.9560   18.2240   68.9680 C   0  0  0  0  0  0  0  0  0  0  0  0
   -4.9150   17.8400   68.0340 C   0  0  0  0  0  0  0  0  0  0  0  0
   -4.7050   18.4130   66.3920 Cl  0  0  0  0  0  0  0  0  0  0  0  0
  -10.8670   12.6190   68.2760 C   0  0  0  0  0  0  0  0  0  0  0  0
   -9.7300   11.5700   68.0820 C   0  0  0  0  0  0  0  0  0  0  0  0
   -9.5000   11.1650   66.6040 C   0  0  0  0  0  0  0  0  0  0  0  0
   -9.7910   10.2950   68.9070 C   0  0  0  0  0  0  0  0  0  0  0  0
  -10.6850   10.8430   66.0200 F   0  0  0  0  0  0  0  0  0  0  0  0
   -8.5260    9.9910   66.4210 C   0  0  0  0  0  0  0  0  0  0  0  0
   -7.6990    9.7470   67.6970 C   0  0  0  0  0  0  0  0  0  0  0  0
   -6.5690    8.7510   67.4450 C   0  0  0  0  0  0  0  0  0  0  0  0
   -8.7090    9.3890   68.7920 C   0  0  0  0  0  0  0  0  0  0  0  0
   -6.9260    7.3540   67.9080 C   0  0  0  0  0  0  0  0  0  0  0  0
   -7.3930    7.3500   69.3720 C   0  0  0  0  0  0  0  0  0  0  0  0
   -8.6560    8.1800   69.5510 C   0  0  0  0  0  0  0  0  0  0  0  0
   -6.1270    7.9770   70.4910 Cl  0  0  0  0  0  0  0  0  0  0  0  0
   -9.7520    7.8460   70.4160 C   0  0  0  0  0  0  0  0  0  0  0  0
  -10.8400    8.7680   70.4350 C   0  0  0  0  0  0  0  0  0  0  0  0
  -10.8710    9.9750   69.7110 C   0  0  0  0  0  0  0  0  0  0  0  0
  -12.0940   10.8500   69.6820 C   0  0  0  0  0  0  0  0  0  0  0  0
  -11.7130   12.3260   69.5390 C   0  0  0  0  0  0  0  0  0  0  0  0
   -9.8900    6.5760   71.2320 C   0  0  0  0  0  0  0  0  0  0  0  0
   -9.9910    6.6010   72.6310 C   0  0  0  0  0  0  0  0  0  0  0  0
  -10.0230    5.4460   73.4510 C   0  0  0  0  0  0  0  0  0  0  0  0
   -9.8840    5.6530   74.9540 C   0  0  0  0  0  0  0  0  0  0  0  0
   -9.9710    4.1810   72.8650 C   0  0  0  0  0  0  0  0  0  0  0  0
   -8.4620    6.2100   75.1820 C   0  0  0  0  0  0  0  0  0  0  0  0
  -10.1650    4.3900   75.7980 C   0  0  0  0  0  0  0  0  0  0  0  0
   -8.1270    6.4110   76.6440 C   0  0  0  0  0  0  0  0  0  0  0  0
   -8.3040    5.1180   77.4390 C   0  0  0  0  0  0  0  0  0  0  0  0
   -9.7560    4.6010   77.2880 C   0  0  0  0  0  0  0  0  0  0  0  0
   -7.9030    5.3740   78.8940 C   0  0  0  0  0  0  0  0  0  0  0  0
  -10.0110    3.3440   78.1270 C   0  0  0  0  0  0  0  0  0  0  0  0
   -9.5250    3.1550   75.1370 C   0  0  0  0  0  0  0  0  0  0  0  0
  -10.0460    2.9230   73.7040 C   0  0  0  0  0  0  0  0  0  0  0  0
  -11.4860    2.3920   73.7030 C   0  0  0  0  0  0  0  0  0  0  0  0
   -9.8250    4.1090   71.4760 C   0  0  0  0  0  0  0  0  0  0  0  0
   -9.7770    5.2770   70.6890 C   0  0  0  0  0  0  0  0  0  0  0  0
   -9.5770    5.0980   69.3710 F   0  0  0  0  0  0  0  0  0  0  0  0
  -11.4060   14.8600   66.2710 O   0  0  0  0  0  0  0  0  0  0  0  0
  -11.6960   13.8980   65.3340 C   0  0  0  0  0  0  0  0  0  0  0  0
  -10.6560   13.5790   64.4630 C   0  0  0  0  0  0  0  0  0  0  0  0
  -10.8540   12.6500   63.4370 C   0  0  0  0  0  0  0  0  0  0  0  0
  -12.0830   12.0100   63.2970 C   0  0  0  0  0  0  0  0  0  0  0  0
  -13.1130   12.2920   64.1830 C   0  0  0  0  0  0  0  0  0  0  0  0
  -12.9230   13.2380   65.1920 C   0  0  0  0  0  0  0  0  0  0  0  0
   -3.0440   19.4250   68.8510 C   0  0  0  0  0  0  0  0  0  0  0  0
   -2.8580   20.0620   67.5800 C   0  0  0  0  0  0  0  0  0  0  0  0
   -1.8100   21.0480   67.3200 C   0  0  0  0  0  0  0  0  0  0  0  0
   -1.2400   21.6040   66.0200 C   0  0  0  0  0  0  0  0  0  0  0  0
   -1.2510   21.5590   68.5040 N   0  0  0  0  0  0  0  0  0  0  0  0
   -0.2210   22.5750   66.0680 C   0  0  0  0  0  0  0  0  0  0  0  0
    0.5530   22.9180   64.9250 N   0  0  0  0  0  0  0  0  0  0  0  0
    0.1240   23.0460   67.3230 C   0  0  0  0  0  0  0  0  0  0  0  0
   -0.3790   22.5710   68.4660 N   0  0  0  0  0  0  0  0  0  0  0  0
   -1.5080   21.0230   69.7390 N   0  0  0  0  0  0  0  0  0  0  0  0
   -2.2440   19.8960   69.8980 C   0  0  0  0  0  0  0  0  0  0  0  0
   -0.7810   21.7170   71.1400 Cl  0  0  0  0  0  0  0  0  0  0  0  0
   -1.9970   19.1490   71.0230 O   0  0  0  0  0  0  0  0  0  0  0  0
   -1.5540   21.1130   64.5410 N   0  0  0  0  0  0  0  0  0  0  0  0
   -1.1280   19.8500   64.0580 N   0  0  0  0  0  0  0  0  0  0  0  0
    0.3440   19.1370   64.6410 Cl  0  0  0  0  0  0  0  0  0  0  0  0
   -1.6890   19.2250   62.9510 C   0  0  0  0  0  0  0  0  0  0  0  0
   -2.5940   19.8420   62.0440 C   0  0  0  0  0  0  0  0  0  0  0  0
   -2.8660   21.1820   62.4090 C   0  0  0  0  0  0  0  0  0  0  0  0
   -3.1860   19.2180   60.8800 N   0  0  0  0  0  0  0  0  0  0  0  0
   -2.4130   21.8000   63.6920 C   0  0  0  0  0  0  0  0  0  0  0  0
   -3.9250   22.1750   61.2320 P   0  0  0  0  0  0  0  0  0  0  0  0
   -2.9360   23.0310   64.1040 N   0  0  0  0  0  0  0  0  0  0  0  0
   -3.8330   21.2630   59.8390 N   0  0  0  0  0  0  0  0  0  0  0  0
   -3.8390   19.9030   59.8200 C   0  0  0  0  0  0  0  0  0  0  0  0
   -3.5820   22.2100   58.4240 Cl  0  0  0  0  0  0  0  0  0  0  0  0
   -4.4120   19.1490   58.8160 N   0  0  0  0  0  0  0  0  0  0  0  0
   -4.3350   17.8040   58.7850 C   0  0  0  0  0  0  0  0  0  0  0  0
   -5.4580   19.8310   57.6300 Cl  0  0  0  0  0  0  0  0  0  0  0  0
   -3.6880   17.1510   59.7580 N   0  0  0  0  0  0  0  0  0  0  0  0
   -3.1170   17.8410   60.7840 N   0  0  0  0  0  0  0  0  0  0  0  0
   -3.6570   15.6430   59.7430 C   0  0  0  0  0  0  0  0  0  0  0  0
  1 19  1  0  0  0  0
  1  2  1  0  0  0  0
  1  6  1  0  0  0  0
  2  3  1  0  0  0  0
  3  4  2  0  0  0  0
  3 11  1  0  0  0  0
  4  5  1  0  0  0  0
  4  8  1  0  0  0  0
  5  6  1  0  0  0  0
  5  7  1  0  0  0  0
  6 55  1  0  0  0  0
  8  9  2  0  0  0  0
  9 10  1  0  0  0  0
  9 17  1  0  0  0  0
 10 11  2  0  0  0  0
 10 13  1  0  0  0  0
 11 12  1  0  0  0  0
 13 14  1  0  0  0  0
 13 15  2  0  0  0  0
 15 16  1  0  0  0  0
 16 17  2  0  0  0  0
 16 62  1  0  0  0  0
 17 18  1  0  0  0  0
 19 20  1  0  0  0  0
 19 36  1  0  0  0  0
 20 21  1  0  0  0  0
 20 22  1  0  0  0  0
 21 23  1  0  0  0  0
 21 24  1  0  0  0  0
 22 27  1  0  0  0  0
 22 34  2  0  0  0  0
 24 25  1  0  0  0  0
 25 26  1  0  0  0  0
 25 27  1  0  0  0  0
 26 28  1  0  0  0  0
 27 30  2  0  0  0  0
 28 29  1  0  0  0  0
 29 30  1  0  0  0  0
 29 31  1  0  0  0  0
 30 32  1  0  0  0  0
 32 33  2  0  0  0  0
 32 37  1  0  0  0  0
 33 34  1  0  0  0  0
 34 35  1  0  0  0  0
 35 36  1  0  0  0  0
 37 38  2  0  0  0  0
 37 53  1  0  0  0  0
 38 39  1  0  0  0  0
 39 40  1  0  0  0  0
 39 41  2  0  0  0  0
 40 42  1  0  0  0  0
 40 43  1  0  0  0  0
 41 50  1  0  0  0  0
 41 52  1  0  0  0  0
 42 44  1  0  0  0  0
 43 46  1  0  0  0  0
 43 49  1  0  0  0  0
 44 45  1  0  0  0  0
 45 46  1  0  0  0  0
 45 47  1  0  0  0  0
 46 48  1  0  0  0  0
 49 50  1  0  0  0  0
 50 51  1  0  0  0  0
 52 53  2  0  0  0  0
 53 54  1  0  0  0  0
 55 56  1  0  0  0  0
 56 57  2  0  0  0  0
 56 61  1  0  0  0  0
 57 58  1  0  0  0  0
 58 59  2  0  0  0  0
 59 60  1  0  0  0  0
 60 61  2  0  0  0  0
 62 63  2  0  0  0  0
 62 72  1  0  0  0  0
 63 64  1  0  0  0  0
 64 65  2  0  0  0  0
 64 66  1  0  0  0  0
 65 67  1  0  0  0  0
 65 75  1  0  0  0  0
 66 70  2  0  0  0  0
 66 71  1  0  0  0  0
 67 68  1  0  0  0  0
 67 69  2  0  0  0  0
 69 70  1  0  0  0  0
 71 72  2  0  0  0  0
 71 73  1  0  0  0  0
 72 74  1  0  0  0  0
 75 76  2  0  0  0  0
 75 82  1  0  0  0  0
 76 77  1  0  0  0  0
 76 78  1  0  0  0  0
 78 79  2  0  0  0  0
 79 80  1  0  0  0  0
 79 81  1  0  0  0  0
 80 82  2  0  0  0  0
 80 83  1  0  0  0  0
 81 86  2  0  0  0  0
 81 92  1  0  0  0  0
 82 84  1  0  0  0  0
 83 85  2  0  0  0  0
 85 86  1  0  0  0  0
 85 87  1  0  0  0  0
 86 88  1  0  0  0  0
 88 89  2  0  0  0  0
 88 90  1  0  0  0  0
 89 91  1  0  0  0  0
 91 92  2  0  0  0  0
 91 93  1  0  0  0  0
M  CHG  8  66   1  71   1  75   1  76   1  85   1  81   1  91   1  88   1
M  END