
 OpenBabel11222001253D

 54 62  0  0  1  0  0  0  0  0999 V2000
  -10.3730   14.9600   67.5480 C   0  0  0  0  0  0  0  0  0  0  0  0
  -10.2610   16.2170   68.0540 C   0  0  0  0  0  0  0  0  0  0  0  0
  -10.6480   16.4780   69.3720 O   0  0  0  0  0  0  0  0  0  0  0  0
  -11.3760   15.5810   70.1160 C   0  0  0  0  0  0  0  0  0  0  0  0
  -11.5720   14.3270   69.6790 C   0  0  0  0  0  0  0  0  0  0  0  0
  -10.9690   13.8520   68.3900 C   0  0  0  0  0  0  0  0  0  0  0  0
  -12.4590   13.3680   70.4150 C   0  0  0  0  0  0  0  0  0  0  0  0
  -11.7200   12.2090   70.7590 O   0  0  0  0  0  0  0  0  0  0  0  0
  -12.4520   11.2230   71.3520 C   0  0  0  0  0  0  0  0  0  0  0  0
  -12.0760   10.0650   71.3880 O   0  0  0  0  0  0  0  0  0  0  0  0
  -13.6510   11.6290   71.8440 O   0  0  0  0  0  0  0  0  0  0  0  0
  -13.7260   12.9150   72.4470 C   0  0  0  0  0  0  0  0  0  0  0  0
  -12.9500   13.9410   71.6920 C   0  0  0  0  0  0  0  0  0  0  0  0
  -12.6790   15.2090   72.0910 C   0  0  0  0  0  0  0  0  0  0  0  0
  -11.8990   16.0460   71.3020 O   0  0  0  0  0  0  0  0  0  0  0  0
  -15.0720   13.3550   72.3990 O   0  0  0  0  0  0  0  0  0  0  0  0
   -9.7380   17.4570   67.3520 C   0  0  0  0  0  0  0  0  0  0  0  0
  -10.5500   18.1580   66.4500 C   0  0  0  0  0  0  0  0  0  0  0  0
  -10.1220   19.3150   65.8300 C   0  0  0  0  0  0  0  0  0  0  0  0
  -10.9500   19.9480   64.9930 F   0  0  0  0  0  0  0  0  0  0  0  0
   -8.8590   19.8150   66.0600 C   0  0  0  0  0  0  0  0  0  0  0  0
   -7.9820   19.1450   66.9290 C   0  0  0  0  0  0  0  0  0  0  0  0
   -8.4400   17.9800   67.6110 C   0  0  0  0  0  0  0  0  0  0  0  0
   -6.6510   19.5980   67.1490 C   0  0  0  0  0  0  0  0  0  0  0  0
   -7.6410   17.3890   68.5180 N   0  0  0  0  0  0  0  0  0  0  0  0
   -6.4180   17.8970   68.7760 C   0  0  0  0  0  0  0  0  0  0  0  0
   -5.6670   17.1860   69.8180 C   0  0  0  0  0  0  0  0  0  0  0  0
   -5.8790   18.9920   68.1440 C   0  0  0  0  0  0  0  0  0  0  0  0
   -6.1520   16.2430   70.4430 O   0  0  0  0  0  0  0  0  0  0  0  0
   -4.2630   17.7160   70.0420 C   0  0  0  0  0  0  0  0  0  0  0  0
   -3.3830   16.9680   70.4350 O   0  0  0  0  0  0  0  0  0  0  0  0
   -4.0760   19.1830   69.6760 C   0  0  0  0  0  0  0  0  0  0  0  0
   -4.6340   19.4980   68.3900 O   0  0  0  0  0  0  0  0  0  0  0  0
   -6.1560   20.7760   66.5400 N   0  0  0  0  0  0  0  0  0  0  0  0
   -4.5590   20.1760   70.7020 C   0  0  0  0  0  0  0  0  0  0  0  0
   -5.9100   20.6550   70.5490 O   0  0  0  0  0  0  0  0  0  0  0  0
   -4.1650   19.9490   72.0530 O   0  0  0  0  0  0  0  0  0  0  0  0
   -3.6340   21.0360   71.4370 C   0  0  0  0  0  0  0  0  0  0  0  0
   -2.4730   21.3000   71.2630 O   0  0  0  0  0  0  0  0  0  0  0  0
   -9.8640   14.6190   66.3050 O   0  0  0  0  0  0  0  0  0  0  0  0
  -10.7280   14.3570   65.1900 C   0  0  0  0  0  0  0  0  0  0  0  0
  -10.1070   13.5570   64.1890 O   0  0  0  0  0  0  0  0  0  0  0  0
  -10.0880   12.1800   64.3620 C   0  0  0  0  0  0  0  0  0  0  0  0
   -9.5660   11.3870   63.4180 C   0  0  0  0  0  0  0  0  0  0  0  0
  -10.6980   11.4940   65.5380 C   0  0  0  0  0  0  0  0  0  0  0  0
   -9.0670   11.8790   62.2390 O   0  0  0  0  0  0  0  0  0  0  0  0
  -11.7180   12.3380   66.2670 C   0  0  0  0  0  0  0  0  0  0  0  0
  -10.4270   10.3590   65.8870 O   0  0  0  0  0  0  0  0  0  0  0  0
  -11.9830   13.7130   65.7310 C   0  0  0  0  0  0  0  0  0  0  0  0
  -12.2830   11.9470   67.2730 O   0  0  0  0  0  0  0  0  0  0  0  0
  -13.1020   14.1970   65.6970 O   0  0  0  0  0  0  0  0  0  0  0  0
  -13.1730   15.7780   73.3650 C   0  0  0  0  0  0  0  0  0  0  0  0
  -12.5450   15.4800   74.6210 O   0  0  0  0  0  0  0  0  0  0  0  0
  -12.4270   16.7960   74.0480 O   0  0  0  0  0  0  0  0  0  0  0  0
  1 40  1  0  0  0  0
  1  2  2  0  0  0  0
  1  6  1  0  0  0  0
  2  3  1  0  0  0  0
  2 17  1  0  0  0  0
  3  4  1  0  0  0  0
  4  5  2  0  0  0  0
  4 15  1  0  0  0  0
  5  6  1  0  0  0  0
  5  7  1  0  0  0  0
  7  8  1  0  0  0  0
  7 13  1  0  0  0  0
  8  9  1  0  0  0  0
  9 10  2  0  0  0  0
  9 11  1  0  0  0  0
 11 12  1  0  0  0  0
 12 13  1  0  0  0  0
 12 16  1  0  0  0  0
 13 14  2  0  0  0  0
 14 15  1  0  0  0  0
 14 52  1  0  0  0  0
 17 18  2  0  0  0  0
 17 23  1  0  0  0  0
 18 19  1  0  0  0  0
 19 20  1  0  0  0  0
 19 21  2  0  0  0  0
 21 22  1  0  0  0  0
 22 23  2  0  0  0  0
 22 24  1  0  0  0  0
 23 25  1  0  0  0  0
 24 28  2  0  0  0  0
 24 34  1  0  0  0  0
 25 26  2  0  0  0  0
 26 27  1  0  0  0  0
 26 28  1  0  0  0  0
 27 29  2  0  0  0  0
 27 30  1  0  0  0  0
 28 33  1  0  0  0  0
 30 31  2  0  0  0  0
 30 32  1  0  0  0  0
 32 33  1  0  0  0  0
 32 35  1  0  0  0  0
 35 36  1  0  0  0  0
 35 37  1  0  0  0  0
 35 38  1  0  0  0  0
 37 38  1  0  0  0  0
 38 39  2  0  0  0  0
 40 41  1  0  0  0  0
 41 42  1  0  0  0  0
 41 49  1  0  0  0  0
 42 43  1  0  0  0  0
 43 44  2  0  0  0  0
 43 45  1  0  0  0  0
 44 46  1  0  0  0  0
 45 47  1  0  0  0  0
 45 48  2  0  0  0  0
 47 49  1  0  0  0  0
 47 50  2  0  0  0  0
 49 51  2  0  0  0  0
 52 53  1  0  0  0  0
 52 54  1  0  0  0  0
 53 54  1  0  0  0  0
M  CHG  1  15   1
M  END