
 OpenBabel11212019413D

 55 63  0  0  1  0  0  0  0  0999 V2000
  -11.1870   15.9090   67.4530 C   0  0  0  0  0  0  0  0  0  0  0  0
  -10.7140   16.9880   68.1270 C   0  0  0  0  0  0  0  0  0  0  0  0
  -10.9330   17.1330   69.5110 O   0  0  0  0  0  0  0  0  0  0  0  0
  -11.6580   16.1620   70.2200 C   0  0  0  0  0  0  0  0  0  0  0  0
  -12.0280   15.0120   69.6290 C   0  0  0  0  0  0  0  0  0  0  0  0
  -11.8030   14.7480   68.1820 C   0  0  0  0  0  0  0  0  0  0  0  0
  -12.7390   13.9130   70.3590 C   0  0  0  0  0  0  0  0  0  0  0  0
  -11.8570   12.8080   70.4140 O   0  0  0  0  0  0  0  0  0  0  0  0
  -12.2970   11.6980   71.0690 C   0  0  0  0  0  0  0  0  0  0  0  0
  -11.7600   10.6140   70.9070 O   0  0  0  0  0  0  0  0  0  0  0  0
  -13.3570   11.8780   71.8920 O   0  0  0  0  0  0  0  0  0  0  0  0
  -13.7530   13.1490   72.4010 C   0  0  0  0  0  0  0  0  0  0  0  0
  -13.0360   14.2800   71.7530 C   0  0  0  0  0  0  0  0  0  0  0  0
  -12.6880   15.4710   72.2920 C   0  0  0  0  0  0  0  0  0  0  0  0
  -11.9760   16.4050   71.5420 O   0  0  0  0  0  0  0  0  0  0  0  0
  -15.1150   13.3600   72.0810 O   0  0  0  0  0  0  0  0  0  0  0  0
   -9.8710   18.0580   67.4690 C   0  0  0  0  0  0  0  0  0  0  0  0
  -10.4580   18.7790   66.4220 C   0  0  0  0  0  0  0  0  0  0  0  0
   -9.8110   19.7540   65.7880 N   0  0  0  0  0  0  0  0  0  0  0  0
  -10.4440   20.4390   64.8170 F   0  0  0  0  0  0  0  0  0  0  0  0
   -8.5760   20.0680   66.0670 N   0  0  0  0  0  0  0  0  0  0  0  0
   -7.9020   19.4250   67.0190 C   0  0  0  0  0  0  0  0  0  0  0  0
   -8.5100   18.3750   67.7570 C   0  0  0  0  0  0  0  0  0  0  0  0
   -6.5590   19.8000   67.2670 C   0  0  0  0  0  0  0  0  0  0  0  0
   -7.7020   17.7100   68.7090 C   0  0  0  0  0  0  0  0  0  0  0  0
   -6.3460   18.0300   68.8860 C   0  0  0  0  0  0  0  0  0  0  0  0
   -5.5290   17.2410   69.8100 C   0  0  0  0  0  0  0  0  0  0  0  0
   -5.7710   19.0670   68.1780 C   0  0  0  0  0  0  0  0  0  0  0  0
   -5.9940   16.2310   70.3230 O   0  0  0  0  0  0  0  0  0  0  0  0
   -4.1090   17.7030   70.0530 C   0  0  0  0  0  0  0  0  0  0  0  0
   -3.3250   16.9730   70.6390 O   0  0  0  0  0  0  0  0  0  0  0  0
   -3.8030   19.1040   69.5640 C   0  0  0  0  0  0  0  0  0  0  0  0
   -4.4660   19.4640   68.3350 O   0  0  0  0  0  0  0  0  0  0  0  0
   -4.0190   20.1260   70.6540 C   0  0  0  0  0  0  0  0  0  0  0  0
   -4.8840   21.2300   70.3460 O   0  0  0  0  0  0  0  0  0  0  0  0
   -4.1290   19.6200   71.9900 O   0  0  0  0  0  0  0  0  0  0  0  0
   -3.0330   20.3550   71.7100 C   0  0  0  0  0  0  0  0  0  0  0  0
   -1.8560   20.0920   71.7750 O   0  0  0  0  0  0  0  0  0  0  0  0
   -5.9060   20.8270   66.5110 N   0  0  0  0  0  0  0  0  0  0  0  0
   -5.8750   21.9800   67.3730 F   0  0  0  0  0  0  0  0  0  0  0  0
  -11.0340   15.7770   66.0800 O   0  0  0  0  0  0  0  0  0  0  0  0
  -10.6370   14.4850   65.5730 C   0  0  0  0  0  0  0  0  0  0  0  0
  -10.1290   13.6790   66.6230 O   0  0  0  0  0  0  0  0  0  0  0  0
   -9.6870   12.4330   66.2140 C   0  0  0  0  0  0  0  0  0  0  0  0
   -8.6180   11.8740   66.7960 C   0  0  0  0  0  0  0  0  0  0  0  0
  -10.3980   11.6690   65.1450 C   0  0  0  0  0  0  0  0  0  0  0  0
   -7.8870   12.5060   67.7720 O   0  0  0  0  0  0  0  0  0  0  0  0
  -11.5680   12.4120   64.5180 C   0  0  0  0  0  0  0  0  0  0  0  0
  -10.0570   10.5630   64.7670 O   0  0  0  0  0  0  0  0  0  0  0  0
  -11.8530   13.8290   64.9570 C   0  0  0  0  0  0  0  0  0  0  0  0
  -12.2360   11.9110   63.6300 O   0  0  0  0  0  0  0  0  0  0  0  0
  -12.9380   14.3720   64.8050 O   0  0  0  0  0  0  0  0  0  0  0  0
  -13.0100   15.8560   73.6840 C   0  0  0  0  0  0  0  0  0  0  0  0
  -12.2060   15.4020   74.7800 O   0  0  0  0  0  0  0  0  0  0  0  0
  -12.1780   16.7900   74.3920 O   0  0  0  0  0  0  0  0  0  0  0  0
  1 41  1  0  0  0  0
  1  2  2  0  0  0  0
  1  6  1  0  0  0  0
  2  3  1  0  0  0  0
  2 17  1  0  0  0  0
  3  4  1  0  0  0  0
  4  5  2  0  0  0  0
  4 15  1  0  0  0  0
  5  6  1  0  0  0  0
  5  7  1  0  0  0  0
  7  8  1  0  0  0  0
  7 13  1  0  0  0  0
  8  9  1  0  0  0  0
  9 10  2  0  0  0  0
  9 11  1  0  0  0  0
 11 12  1  0  0  0  0
 12 13  1  0  0  0  0
 12 16  1  0  0  0  0
 13 14  2  0  0  0  0
 14 15  1  0  0  0  0
 14 53  1  0  0  0  0
 17 18  2  0  0  0  0
 17 23  1  0  0  0  0
 18 19  1  0  0  0  0
 19 20  1  0  0  0  0
 19 21  2  0  0  0  0
 21 22  1  0  0  0  0
 22 23  2  0  0  0  0
 22 24  1  0  0  0  0
 23 25  1  0  0  0  0
 24 28  2  0  0  0  0
 24 39  1  0  0  0  0
 25 26  2  0  0  0  0
 26 27  1  0  0  0  0
 26 28  1  0  0  0  0
 27 29  2  0  0  0  0
 27 30  1  0  0  0  0
 28 33  1  0  0  0  0
 30 31  2  0  0  0  0
 30 32  1  0  0  0  0
 32 33  1  0  0  0  0
 32 34  1  0  0  0  0
 34 35  1  0  0  0  0
 34 36  1  0  0  0  0
 34 37  1  0  0  0  0
 36 37  1  0  0  0  0
 37 38  2  0  0  0  0
 39 40  1  0  0  0  0
 41 42  1  0  0  0  0
 42 43  1  0  0  0  0
 42 50  1  0  0  0  0
 43 44  1  0  0  0  0
 44 45  2  0  0  0  0
 44 46  1  0  0  0  0
 45 47  1  0  0  0  0
 46 48  1  0  0  0  0
 46 49  2  0  0  0  0
 48 50  1  0  0  0  0
 48 51  2  0  0  0  0
 50 52  2  0  0  0  0
 53 54  1  0  0  0  0
 53 55  1  0  0  0  0
 54 55  1  0  0  0  0
M  CHG  2  15   1  19   1
M  END