
 OpenBabel09222006203D

 50 58  0  0  1  0  0  0  0  0999 V2000
  -11.5660    9.4180   69.5560 O   0  0  0  0  0  0  0  0  0  0  0  0
  -11.9420   10.4890   70.0210 C   0  0  0  0  0  0  0  0  0  0  0  0
  -13.0020   10.5730   70.8590 N   0  0  0  0  0  0  0  0  0  0  0  0
  -13.3680   11.7620   71.5990 C   0  0  0  0  0  0  0  0  0  0  0  0
  -12.7420   13.0050   71.0590 C   0  0  0  0  0  0  0  0  0  0  0  0
  -11.7300   12.9220   70.1180 C   0  0  0  0  0  0  0  0  0  0  0  0
  -11.3250   11.6510   69.6840 N   0  0  0  0  0  0  0  0  0  0  0  0
  -11.1430   14.0830   69.5990 C   0  0  0  0  0  0  0  0  0  0  0  0
  -10.1120   14.0250   68.5280 C   0  0  0  0  0  0  0  0  0  0  0  0
   -9.7880   15.3510   67.9010 C   0  0  0  0  0  0  0  0  0  0  0  0
  -10.2470   16.4970   68.4620 C   0  0  0  0  0  0  0  0  0  0  0  0
  -11.0370   16.5020   69.6210 O   0  0  0  0  0  0  0  0  0  0  0  0
  -11.5630   15.3090   70.0930 C   0  0  0  0  0  0  0  0  0  0  0  0
  -12.5220   15.4250   71.0400 N   0  0  0  0  0  0  0  0  0  0  0  0
  -13.0800   14.2770   71.4760 C   0  0  0  0  0  0  0  0  0  0  0  0
  -14.0600   14.4630   72.3980 O   0  0  0  0  0  0  0  0  0  0  0  0
   -9.8890   17.8740   67.9940 C   0  0  0  0  0  0  0  0  0  0  0  0
  -10.8860   18.4760   67.2900 N   0  0  0  0  0  0  0  0  0  0  0  0
  -10.6430   19.6990   66.7660 C   0  0  0  0  0  0  0  0  0  0  0  0
   -9.4400   20.3740   66.8810 C   0  0  0  0  0  0  0  0  0  0  0  0
   -8.4050   19.7780   67.6020 C   0  0  0  0  0  0  0  0  0  0  0  0
   -8.6200   18.4940   68.1820 C   0  0  0  0  0  0  0  0  0  0  0  0
   -7.1740   20.4570   67.7680 C   0  0  0  0  0  0  0  0  0  0  0  0
   -7.5420   17.9290   68.8910 C   0  0  0  0  0  0  0  0  0  0  0  0
   -6.3140   18.6020   69.0120 C   0  0  0  0  0  0  0  0  0  0  0  0
   -6.1410   19.8860   68.5080 C   0  0  0  0  0  0  0  0  0  0  0  0
   -5.1840   17.9330   69.6660 C   0  0  0  0  0  0  0  0  0  0  0  0
   -5.0200   20.6500   68.7100 O   0  0  0  0  0  0  0  0  0  0  0  0
   -4.1760   20.2460   69.8060 C   0  0  0  0  0  0  0  0  0  0  0  0
   -3.9360   18.7580   69.8620 C   0  0  0  0  0  0  0  0  0  0  0  0
   -2.8560   18.2370   70.0960 O   0  0  0  0  0  0  0  0  0  0  0  0
   -5.2340   16.7640   70.0130 O   0  0  0  0  0  0  0  0  0  0  0  0
   -4.7000   20.7440   71.1210 C   0  0  0  0  0  0  0  0  0  0  0  0
   -6.1260   20.6220   71.3450 O   0  0  0  0  0  0  0  0  0  0  0  0
   -3.8800   20.3970   72.2420 O   0  0  0  0  0  0  0  0  0  0  0  0
   -4.0080   21.7130   71.9710 C   0  0  0  0  0  0  0  0  0  0  0  0
   -4.4490   22.6000   72.6570 O   0  0  0  0  0  0  0  0  0  0  0  0
   -9.0620   15.3370   66.7190 O   0  0  0  0  0  0  0  0  0  0  0  0
   -9.4900   14.4270   65.6770 C   0  0  0  0  0  0  0  0  0  0  0  0
   -9.6850   13.1050   66.1870 O   0  0  0  0  0  0  0  0  0  0  0  0
  -10.3070   12.2410   65.3020 C   0  0  0  0  0  0  0  0  0  0  0  0
   -9.8740   11.0030   65.0870 C   0  0  0  0  0  0  0  0  0  0  0  0
  -11.5270   12.6610   64.5740 C   0  0  0  0  0  0  0  0  0  0  0  0
  -10.0930    9.8990   64.4090 O   0  0  0  0  0  0  0  0  0  0  0  0
   -8.9350   10.1420   65.4040 O   0  0  0  0  0  0  0  0  0  0  0  0
  -12.2270   11.9300   63.8960 O   0  0  0  0  0  0  0  0  0  0  0  0
  -11.8250   14.1330   64.7110 C   0  0  0  0  0  0  0  0  0  0  0  0
  -12.9560   14.5540   64.5240 O   0  0  0  0  0  0  0  0  0  0  0  0
  -10.7130   15.0860   65.0590 C   0  0  0  0  0  0  0  0  0  0  0  0
  -10.7990   16.2700   64.7630 O   0  0  0  0  0  0  0  0  0  0  0  0
  1  2  2  0  0  0  0
  2  3  1  0  0  0  0
  2  7  1  0  0  0  0
  3  4  1  0  0  0  0
  4  5  1  0  0  0  0
  5  6  2  0  0  0  0
  5 15  1  0  0  0  0
  6  7  1  0  0  0  0
  6  8  1  0  0  0  0
  8  9  1  0  0  0  0
  8 13  2  0  0  0  0
  9 10  1  0  0  0  0
 10 11  2  0  0  0  0
 10 38  1  0  0  0  0
 11 12  1  0  0  0  0
 11 17  1  0  0  0  0
 12 13  1  0  0  0  0
 13 14  1  0  0  0  0
 14 15  2  0  0  0  0
 15 16  1  0  0  0  0
 17 18  2  0  0  0  0
 17 22  1  0  0  0  0
 18 19  1  0  0  0  0
 19 20  2  0  0  0  0
 20 21  1  0  0  0  0
 21 22  2  0  0  0  0
 21 23  1  0  0  0  0
 22 24  1  0  0  0  0
 23 26  2  0  0  0  0
 24 25  2  0  0  0  0
 25 26  1  0  0  0  0
 25 27  1  0  0  0  0
 26 28  1  0  0  0  0
 27 30  1  0  0  0  0
 27 32  2  0  0  0  0
 28 29  1  0  0  0  0
 29 30  1  0  0  0  0
 29 33  1  0  0  0  0
 30 31  2  0  0  0  0
 33 34  1  0  0  0  0
 33 35  1  0  0  0  0
 33 36  1  0  0  0  0
 35 36  1  0  0  0  0
 36 37  2  0  0  0  0
 38 39  1  0  0  0  0
 39 40  1  0  0  0  0
 39 49  1  0  0  0  0
 40 41  1  0  0  0  0
 41 42  2  0  0  0  0
 41 43  1  0  0  0  0
 42 44  1  0  0  0  0
 42 45  1  0  0  0  0
 43 46  2  0  0  0  0
 43 47  1  0  0  0  0
 44 45  1  0  0  0  0
 47 48  2  0  0  0  0
 47 49  1  0  0  0  0
 49 50  2  0  0  0  0
M  END
