
 OpenBabel11252023293D

 54 63  0  0  1  0  0  0  0  0999 V2000
  -11.0030   15.6590   67.2770 C   0  0  0  0  0  0  0  0  0  0  0  0
  -10.7710   16.7860   67.9790 C   0  0  0  0  0  0  0  0  0  0  0  0
  -11.1160   16.9670   69.3040 O   0  0  0  0  0  0  0  0  0  0  0  0
  -11.6640   15.9060   69.9960 C   0  0  0  0  0  0  0  0  0  0  0  0
  -11.9300   14.6960   69.3900 C   0  0  0  0  0  0  0  0  0  0  0  0
  -11.7050   14.4910   67.9230 C   0  0  0  0  0  0  0  0  0  0  0  0
  -12.4030   13.6870   70.2230 C   0  0  0  0  0  0  0  0  0  0  0  0
  -12.6780   12.4330   69.6620 O   0  0  0  0  0  0  0  0  0  0  0  0
  -12.8240   11.2920   70.4550 C   0  0  0  0  0  0  0  0  0  0  0  0
  -12.8770   10.1760   69.9520 O   0  0  0  0  0  0  0  0  0  0  0  0
  -12.7880   11.4790   71.7980 O   0  0  0  0  0  0  0  0  0  0  0  0
  -13.1580   12.7350   72.3560 C   0  0  0  0  0  0  0  0  0  0  0  0
  -12.6140   13.8800   71.5770 C   0  0  0  0  0  0  0  0  0  0  0  0
  -12.3560   15.1470   72.1070 C   0  0  0  0  0  0  0  0  0  0  0  0
  -11.8670   16.1430   71.3080 N   0  0  0  0  0  0  0  0  0  0  0  0
  -14.5670   12.8480   72.4060 O   0  0  0  0  0  0  0  0  0  0  0  0
  -10.0530   17.9310   67.3890 C   0  0  0  0  0  0  0  0  0  0  0  0
  -10.7680   18.7370   66.5140 C   0  0  0  0  0  0  0  0  0  0  0  0
  -10.2020   19.8100   65.9610 N   0  0  0  0  0  0  0  0  0  0  0  0
  -10.9270   20.5680   65.1180 F   0  0  0  0  0  0  0  0  0  0  0  0
   -8.9560   20.1670   66.2120 N   0  0  0  0  0  0  0  0  0  0  0  0
   -8.2090   19.4380   67.0520 C   0  0  0  0  0  0  0  0  0  0  0  0
   -8.7200   18.2790   67.6750 C   0  0  0  0  0  0  0  0  0  0  0  0
   -6.8900   19.8540   67.3320 C   0  0  0  0  0  0  0  0  0  0  0  0
   -7.8830   17.5390   68.5410 C   0  0  0  0  0  0  0  0  0  0  0  0
   -6.5640   17.9370   68.7790 C   0  0  0  0  0  0  0  0  0  0  0  0
   -6.0680   19.0830   68.1770 C   0  0  0  0  0  0  0  0  0  0  0  0
   -5.6920   17.1410   69.6540 C   0  0  0  0  0  0  0  0  0  0  0  0
   -4.7670   19.4940   68.3610 O   0  0  0  0  0  0  0  0  0  0  0  0
   -4.2170   19.1450   69.6540 C   0  0  0  0  0  0  0  0  0  0  0  0
   -4.3660   17.7420   70.0790 C   0  0  0  0  0  0  0  0  0  0  0  0
   -3.0030   19.7710   69.9890 O   0  0  0  0  0  0  0  0  0  0  0  0
   -4.1860   20.1750   70.7450 C   0  0  0  0  0  0  0  0  0  0  0  0
   -3.5880   17.1630   70.8160 O   0  0  0  0  0  0  0  0  0  0  0  0
   -4.9550   21.3370   70.2510 O   0  0  0  0  0  0  0  0  0  0  0  0
   -3.9800   21.5510   71.1040 C   0  0  0  0  0  0  0  0  0  0  0  0
   -3.9620   22.1420   72.1650 O   0  0  0  0  0  0  0  0  0  0  0  0
   -6.0570   16.0480   70.0580 O   0  0  0  0  0  0  0  0  0  0  0  0
   -6.3110   20.9270   66.6110 N   0  0  0  0  0  0  0  0  0  0  0  0
  -10.6570   15.6060   65.9380 O   0  0  0  0  0  0  0  0  0  0  0  0
  -10.2400   14.3530   65.3550 C   0  0  0  0  0  0  0  0  0  0  0  0
   -9.7910   13.4840   66.3740 O   0  0  0  0  0  0  0  0  0  0  0  0
   -9.6720   12.1600   65.9920 C   0  0  0  0  0  0  0  0  0  0  0  0
   -8.6140   11.4280   66.3580 C   0  0  0  0  0  0  0  0  0  0  0  0
  -10.7490   11.5100   65.1980 C   0  0  0  0  0  0  0  0  0  0  0  0
   -7.5690   11.9640   67.0670 O   0  0  0  0  0  0  0  0  0  0  0  0
  -11.8430   12.4700   64.7860 C   0  0  0  0  0  0  0  0  0  0  0  0
  -10.7470   10.3460   64.8420 O   0  0  0  0  0  0  0  0  0  0  0  0
  -11.4850   13.9250   64.5910 C   0  0  0  0  0  0  0  0  0  0  0  0
  -12.9930   12.0940   64.6300 O   0  0  0  0  0  0  0  0  0  0  0  0
  -12.1360   14.6730   63.8640 O   0  0  0  0  0  0  0  0  0  0  0  0
  -12.6050   15.4790   73.5590 C   0  0  0  0  0  0  0  0  0  0  0  0
  -12.2650   16.8010   74.0060 O   0  0  0  0  0  0  0  0  0  0  0  0
  -13.6470   16.4230   73.8590 O   0  0  0  0  0  0  0  0  0  0  0  0
  1 40  1  0  0  0  0
  1  2  2  0  0  0  0
  1  6  1  0  0  0  0
  2  3  1  0  0  0  0
  2 17  1  0  0  0  0
  3  4  1  0  0  0  0
  4  5  2  0  0  0  0
  4 15  1  0  0  0  0
  5  6  1  0  0  0  0
  5  7  1  0  0  0  0
  7  8  1  0  0  0  0
  7 13  2  0  0  0  0
  8  9  1  0  0  0  0
  9 10  2  0  0  0  0
  9 11  1  0  0  0  0
 11 12  1  0  0  0  0
 12 13  1  0  0  0  0
 12 16  1  0  0  0  0
 13 14  1  0  0  0  0
 14 15  2  0  0  0  0
 14 52  1  0  0  0  0
 17 18  2  0  0  0  0
 17 23  1  0  0  0  0
 18 19  1  0  0  0  0
 19 20  1  0  0  0  0
 19 21  2  0  0  0  0
 21 22  1  0  0  0  0
 22 23  2  0  0  0  0
 22 24  1  0  0  0  0
 23 25  1  0  0  0  0
 24 27  2  0  0  0  0
 24 39  1  0  0  0  0
 25 26  2  0  0  0  0
 26 27  1  0  0  0  0
 26 28  1  0  0  0  0
 27 29  1  0  0  0  0
 28 31  1  0  0  0  0
 28 38  2  0  0  0  0
 29 30  1  0  0  0  0
 30 31  1  0  0  0  0
 30 32  1  0  0  0  0
 30 33  1  0  0  0  0
 31 34  2  0  0  0  0
 32 33  1  0  0  0  0
 33 35  1  0  0  0  0
 33 36  1  0  0  0  0
 35 36  1  0  0  0  0
 36 37  2  0  0  0  0
 40 41  1  0  0  0  0
 41 42  1  0  0  0  0
 41 49  1  0  0  0  0
 42 43  1  0  0  0  0
 43 44  2  0  0  0  0
 43 45  1  0  0  0  0
 44 46  1  0  0  0  0
 45 47  1  0  0  0  0
 45 48  2  0  0  0  0
 47 49  1  0  0  0  0
 47 50  2  0  0  0  0
 49 51  2  0  0  0  0
 52 53  1  0  0  0  0
 52 54  1  0  0  0  0
 53 54  1  0  0  0  0
M  CHG  1  19   1
M  END