
 OpenBabel11232002263D

 53 62  0  0  1  0  0  0  0  0999 V2000
  -10.9130   15.6190   67.0520 C   0  0  0  0  0  0  0  0  0  0  0  0
  -10.5230   16.7210   67.7490 C   0  0  0  0  0  0  0  0  0  0  0  0
  -10.8790   16.9070   69.0990 O   0  0  0  0  0  0  0  0  0  0  0  0
  -11.5480   15.8900   69.7890 C   0  0  0  0  0  0  0  0  0  0  0  0
  -11.9260   14.7590   69.1810 C   0  0  0  0  0  0  0  0  0  0  0  0
  -11.6930   14.5320   67.7420 C   0  0  0  0  0  0  0  0  0  0  0  0
  -12.6260   13.6510   69.9180 C   0  0  0  0  0  0  0  0  0  0  0  0
  -11.8380   12.4400   69.7490 N   0  0  0  0  0  0  0  0  0  0  0  0
  -12.2950   11.3220   70.3510 C   0  0  0  0  0  0  0  0  0  0  0  0
  -12.2800   10.1790   69.7660 N   0  0  0  0  0  0  0  0  0  0  0  0
  -12.7170   11.4900   71.6190 N   0  0  0  0  0  0  0  0  0  0  0  0
  -13.3920   12.6890   72.0660 C   0  0  0  0  0  0  0  0  0  0  0  0
  -12.7820   13.8860   71.3900 C   0  0  0  0  0  0  0  0  0  0  0  0
  -12.3860   15.0580   71.9460 C   0  0  0  0  0  0  0  0  0  0  0  0
  -11.8160   16.0420   71.1290 N   0  0  0  0  0  0  0  0  0  0  0  0
   -9.7950   17.8940   67.1790 C   0  0  0  0  0  0  0  0  0  0  0  0
  -10.5180   18.7240   66.3270 C   0  0  0  0  0  0  0  0  0  0  0  0
   -9.9630   19.8170   65.7910 N   0  0  0  0  0  0  0  0  0  0  0  0
  -10.7120   20.6130   65.0030 F   0  0  0  0  0  0  0  0  0  0  0  0
   -8.7050   20.1600   66.0010 N   0  0  0  0  0  0  0  0  0  0  0  0
   -7.9450   19.4240   66.8130 C   0  0  0  0  0  0  0  0  0  0  0  0
   -8.4600   18.2840   67.4720 C   0  0  0  0  0  0  0  0  0  0  0  0
   -6.6090   19.8050   67.0190 C   0  0  0  0  0  0  0  0  0  0  0  0
   -7.6120   17.6330   68.3990 C   0  0  0  0  0  0  0  0  0  0  0  0
   -6.2910   18.0660   68.6190 C   0  0  0  0  0  0  0  0  0  0  0  0
   -5.4730   17.4190   69.6660 C   0  0  0  0  0  0  0  0  0  0  0  0
   -5.7610   19.1240   67.8900 C   0  0  0  0  0  0  0  0  0  0  0  0
   -5.9430   16.5120   70.3460 O   0  0  0  0  0  0  0  0  0  0  0  0
   -4.0750   17.9680   69.8820 C   0  0  0  0  0  0  0  0  0  0  0  0
   -3.2190   16.9450   70.3860 O   0  0  0  0  0  0  0  0  0  0  0  0
   -3.5890   18.5340   68.5900 C   0  0  0  0  0  0  0  0  0  0  0  0
   -4.4530   19.5400   68.0060 O   0  0  0  0  0  0  0  0  0  0  0  0
   -3.0740   17.5350   67.6410 O   0  0  0  0  0  0  0  0  0  0  0  0
   -2.2020   18.4650   68.2490 C   0  0  0  0  0  0  0  0  0  0  0  0
   -1.3260   19.1840   67.4590 O   0  0  0  0  0  0  0  0  0  0  0  0
   -0.8160   18.2190   68.5070 C   0  0  0  0  0  0  0  0  0  0  0  0
   -0.2260   17.0160   67.9920 O   0  0  0  0  0  0  0  0  0  0  0  0
   -6.1360   20.8750   66.3570 F   0  0  0  0  0  0  0  0  0  0  0  0
  -10.5720   15.3870   65.7240 O   0  0  0  0  0  0  0  0  0  0  0  0
  -10.0080   14.0840   65.3490 C   0  0  0  0  0  0  0  0  0  0  0  0
   -9.4350   13.3230   66.4140 O   0  0  0  0  0  0  0  0  0  0  0  0
   -9.4640   11.9340   66.3960 C   0  0  0  0  0  0  0  0  0  0  0  0
   -9.0470   11.2320   67.4620 C   0  0  0  0  0  0  0  0  0  0  0  0
  -10.0050   11.1380   65.2520 C   0  0  0  0  0  0  0  0  0  0  0  0
   -8.5700   11.8220   68.6070 O   0  0  0  0  0  0  0  0  0  0  0  0
  -10.5460   11.9860   64.1280 C   0  0  0  0  0  0  0  0  0  0  0  0
  -10.0720    9.9270   65.2130 O   0  0  0  0  0  0  0  0  0  0  0  0
  -11.0140   13.3680   64.4670 C   0  0  0  0  0  0  0  0  0  0  0  0
  -10.5450   11.6150   62.9720 O   0  0  0  0  0  0  0  0  0  0  0  0
  -12.0730   13.8180   64.0540 O   0  0  0  0  0  0  0  0  0  0  0  0
  -12.5110   15.3970   73.3870 C   0  0  0  0  0  0  0  0  0  0  0  0
  -12.0570   16.6570   73.9070 O   0  0  0  0  0  0  0  0  0  0  0  0
  -13.4680   16.3670   73.8460 O   0  0  0  0  0  0  0  0  0  0  0  0
  1 39  1  0  0  0  0
  1  2  2  0  0  0  0
  1  6  1  0  0  0  0
  2  3  1  0  0  0  0
  2 16  1  0  0  0  0
  3  4  1  0  0  0  0
  4  5  2  0  0  0  0
  4 15  1  0  0  0  0
  5  6  1  0  0  0  0
  5  7  1  0  0  0  0
  7  8  1  0  0  0  0
  7 13  1  0  0  0  0
  8  9  1  0  0  0  0
  9 10  2  0  0  0  0
  9 11  1  0  0  0  0
 11 12  1  0  0  0  0
 12 13  1  0  0  0  0
 13 14  2  0  0  0  0
 14 15  1  0  0  0  0
 14 51  1  0  0  0  0
 16 17  2  0  0  0  0
 16 22  1  0  0  0  0
 17 18  1  0  0  0  0
 18 19  1  0  0  0  0
 18 20  2  0  0  0  0
 20 21  1  0  0  0  0
 21 22  2  0  0  0  0
 21 23  1  0  0  0  0
 22 24  1  0  0  0  0
 23 27  2  0  0  0  0
 23 38  1  0  0  0  0
 24 25  2  0  0  0  0
 25 26  1  0  0  0  0
 25 27  1  0  0  0  0
 26 28  2  0  0  0  0
 26 29  1  0  0  0  0
 27 32  1  0  0  0  0
 29 30  1  0  0  0  0
 29 31  1  0  0  0  0
 31 32  1  0  0  0  0
 31 33  1  0  0  0  0
 31 34  1  0  0  0  0
 33 34  1  0  0  0  0
 34 35  1  0  0  0  0
 34 36  1  0  0  0  0
 35 36  1  0  0  0  0
 36 37  1  0  0  0  0
 39 40  1  0  0  0  0
 40 41  1  0  0  0  0
 40 48  1  0  0  0  0
 41 42  1  0  0  0  0
 42 43  2  0  0  0  0
 42 44  1  0  0  0  0
 43 45  1  0  0  0  0
 44 46  1  0  0  0  0
 44 47  2  0  0  0  0
 46 48  1  0  0  0  0
 46 49  2  0  0  0  0
 48 50  2  0  0  0  0
 51 52  1  0  0  0  0
 51 53  1  0  0  0  0
 52 53  1  0  0  0  0
M  CHG  1  18   1
M  END