
 OpenBabel11232002583D

 54 63  0  0  1  0  0  0  0  0999 V2000
  -11.0290   15.8670   67.1870 C   0  0  0  0  0  0  0  0  0  0  0  0
  -10.5880   16.9310   67.9010 C   0  0  0  0  0  0  0  0  0  0  0  0
  -10.8940   17.0510   69.2660 O   0  0  0  0  0  0  0  0  0  0  0  0
  -11.5830   16.0410   69.9390 C   0  0  0  0  0  0  0  0  0  0  0  0
  -12.0380   14.9560   69.2920 C   0  0  0  0  0  0  0  0  0  0  0  0
  -11.9310   14.8250   67.8100 C   0  0  0  0  0  0  0  0  0  0  0  0
  -12.6500   13.7850   70.0090 C   0  0  0  0  0  0  0  0  0  0  0  0
  -11.7950   12.6700   69.7910 O   0  0  0  0  0  0  0  0  0  0  0  0
  -12.2130   11.4930   70.3310 C   0  0  0  0  0  0  0  0  0  0  0  0
  -11.7810   10.4190   69.9460 O   0  0  0  0  0  0  0  0  0  0  0  0
  -13.1610   11.6190   71.2900 O   0  0  0  0  0  0  0  0  0  0  0  0
  -13.1110   12.7400   72.1610 C   0  0  0  0  0  0  0  0  0  0  0  0
  -12.6580   13.9840   71.4750 C   0  0  0  0  0  0  0  0  0  0  0  0
  -12.2490   15.1310   72.0640 C   0  0  0  0  0  0  0  0  0  0  0  0
  -11.7630   16.1820   71.2940 O   0  0  0  0  0  0  0  0  0  0  0  0
  -14.4220   13.0330   72.5980 O   0  0  0  0  0  0  0  0  0  0  0  0
   -9.7580   18.0630   67.3330 C   0  0  0  0  0  0  0  0  0  0  0  0
  -10.3180   18.9280   66.3850 C   0  0  0  0  0  0  0  0  0  0  0  0
   -9.6220   19.9410   65.8560 N   0  0  0  0  0  0  0  0  0  0  0  0
  -10.2270   20.7600   64.9740 F   0  0  0  0  0  0  0  0  0  0  0  0
   -8.3540   20.1530   66.1410 N   0  0  0  0  0  0  0  0  0  0  0  0
   -7.7270   19.3570   67.0060 C   0  0  0  0  0  0  0  0  0  0  0  0
   -8.3900   18.2970   67.6640 C   0  0  0  0  0  0  0  0  0  0  0  0
   -6.3640   19.5740   67.2500 C   0  0  0  0  0  0  0  0  0  0  0  0
   -7.6270   17.5430   68.5910 C   0  0  0  0  0  0  0  0  0  0  0  0
   -6.2550   17.7620   68.7800 C   0  0  0  0  0  0  0  0  0  0  0  0
   -5.6160   18.7880   68.1250 C   0  0  0  0  0  0  0  0  0  0  0  0
   -5.4750   16.8350   69.6030 C   0  0  0  0  0  0  0  0  0  0  0  0
   -4.2730   19.0100   68.2430 O   0  0  0  0  0  0  0  0  0  0  0  0
   -3.6820   18.5740   69.4970 C   0  0  0  0  0  0  0  0  0  0  0  0
   -4.0760   17.2460   70.0120 C   0  0  0  0  0  0  0  0  0  0  0  0
   -2.3290   18.9200   69.6720 O   0  0  0  0  0  0  0  0  0  0  0  0
   -3.2980   19.6030   70.5260 C   0  0  0  0  0  0  0  0  0  0  0  0
   -3.4220   16.5820   70.7980 O   0  0  0  0  0  0  0  0  0  0  0  0
   -3.8580   20.8810   70.0620 O   0  0  0  0  0  0  0  0  0  0  0  0
   -2.7600   20.9130   70.7850 C   0  0  0  0  0  0  0  0  0  0  0  0
   -2.5070   21.5030   71.8110 O   0  0  0  0  0  0  0  0  0  0  0  0
   -5.9760   15.7620   69.9170 O   0  0  0  0  0  0  0  0  0  0  0  0
   -5.7450   20.5620   66.5870 F   0  0  0  0  0  0  0  0  0  0  0  0
  -10.7240   15.7270   65.8440 O   0  0  0  0  0  0  0  0  0  0  0  0
  -10.5230   14.3840   65.3510 C   0  0  0  0  0  0  0  0  0  0  0  0
  -10.2110   13.5080   66.4180 O   0  0  0  0  0  0  0  0  0  0  0  0
   -9.9110   12.2380   65.9570 C   0  0  0  0  0  0  0  0  0  0  0  0
   -8.8270   11.5890   66.3980 C   0  0  0  0  0  0  0  0  0  0  0  0
  -10.8030   11.6000   64.9450 C   0  0  0  0  0  0  0  0  0  0  0  0
   -7.9360   12.1490   67.2830 O   0  0  0  0  0  0  0  0  0  0  0  0
  -11.9730   12.4900   64.5420 C   0  0  0  0  0  0  0  0  0  0  0  0
  -10.5840   10.5300   64.4080 O   0  0  0  0  0  0  0  0  0  0  0  0
  -11.8010   13.9930   64.6350 C   0  0  0  0  0  0  0  0  0  0  0  0
  -13.0310   12.0240   64.1560 O   0  0  0  0  0  0  0  0  0  0  0  0
  -12.5650   14.7930   64.1190 O   0  0  0  0  0  0  0  0  0  0  0  0
  -12.2330   15.3560   73.5190 C   0  0  0  0  0  0  0  0  0  0  0  0
  -13.3050   16.1320   74.0550 N   0  0  0  0  0  0  0  0  0  0  0  0
  -12.2080   16.7070   73.9540 N   0  0  0  0  0  0  0  0  0  0  0  0
  1 40  1  0  0  0  0
  1  2  2  0  0  0  0
  1  6  1  0  0  0  0
  2  3  1  0  0  0  0
  2 17  1  0  0  0  0
  3  4  1  0  0  0  0
  4  5  2  0  0  0  0
  4 15  1  0  0  0  0
  5  6  1  0  0  0  0
  5  7  1  0  0  0  0
  7  8  1  0  0  0  0
  7 13  1  0  0  0  0
  8  9  1  0  0  0  0
  9 10  2  0  0  0  0
  9 11  1  0  0  0  0
 11 12  1  0  0  0  0
 12 13  1  0  0  0  0
 12 16  1  0  0  0  0
 13 14  2  0  0  0  0
 14 15  1  0  0  0  0
 14 52  1  0  0  0  0
 17 18  2  0  0  0  0
 17 23  1  0  0  0  0
 18 19  1  0  0  0  0
 19 20  1  0  0  0  0
 19 21  2  0  0  0  0
 21 22  1  0  0  0  0
 22 23  2  0  0  0  0
 22 24  1  0  0  0  0
 23 25  1  0  0  0  0
 24 27  2  0  0  0  0
 24 39  1  0  0  0  0
 25 26  2  0  0  0  0
 26 27  1  0  0  0  0
 26 28  1  0  0  0  0
 27 29  1  0  0  0  0
 28 31  1  0  0  0  0
 28 38  2  0  0  0  0
 29 30  1  0  0  0  0
 30 31  1  0  0  0  0
 30 32  1  0  0  0  0
 30 33  1  0  0  0  0
 31 34  2  0  0  0  0
 32 33  1  0  0  0  0
 33 35  1  0  0  0  0
 33 36  1  0  0  0  0
 35 36  1  0  0  0  0
 36 37  2  0  0  0  0
 40 41  1  0  0  0  0
 41 42  1  0  0  0  0
 41 49  1  0  0  0  0
 42 43  1  0  0  0  0
 43 44  2  0  0  0  0
 43 45  1  0  0  0  0
 44 46  1  0  0  0  0
 45 47  1  0  0  0  0
 45 48  2  0  0  0  0
 47 49  1  0  0  0  0
 47 50  2  0  0  0  0
 49 51  2  0  0  0  0
 52 53  1  0  0  0  0
 52 54  1  0  0  0  0
 53 54  2  0  0  0  0
M  CHG  2  15   1  19   1
M  END