
 OpenBabel11272002463D

 54 62  0  0  1  0  0  0  0  0999 V2000
  -11.3440   15.8090   67.2890 C   0  0  0  0  0  0  0  0  0  0  0  0
  -10.8030   16.8540   67.9620 C   0  0  0  0  0  0  0  0  0  0  0  0
  -11.0460   17.0230   69.3390 O   0  0  0  0  0  0  0  0  0  0  0  0
  -11.6210   15.9910   70.0910 C   0  0  0  0  0  0  0  0  0  0  0  0
  -12.1390   14.9060   69.4880 C   0  0  0  0  0  0  0  0  0  0  0  0
  -12.1600   14.7620   68.0030 C   0  0  0  0  0  0  0  0  0  0  0  0
  -12.7270   13.7570   70.2580 C   0  0  0  0  0  0  0  0  0  0  0  0
  -11.9190   12.6180   69.9870 O   0  0  0  0  0  0  0  0  0  0  0  0
  -12.1280   11.5050   70.7170 C   0  0  0  0  0  0  0  0  0  0  0  0
  -11.6040   10.3980   70.3590 N   0  0  0  0  0  0  0  0  0  0  0  0
  -12.8730   11.5880   71.8310 O   0  0  0  0  0  0  0  0  0  0  0  0
  -13.2760   12.8180   72.4180 C   0  0  0  0  0  0  0  0  0  0  0  0
  -12.6930   13.9950   71.7190 C   0  0  0  0  0  0  0  0  0  0  0  0
  -12.1880   15.1200   72.2740 C   0  0  0  0  0  0  0  0  0  0  0  0
  -11.6390   16.1150   71.4650 O   0  0  0  0  0  0  0  0  0  0  0  0
  -14.6760   12.9640   72.2960 O   0  0  0  0  0  0  0  0  0  0  0  0
   -9.9180   17.9030   67.3240 C   0  0  0  0  0  0  0  0  0  0  0  0
  -10.4880   18.8350   66.4520 C   0  0  0  0  0  0  0  0  0  0  0  0
   -9.7550   19.7590   65.8250 N   0  0  0  0  0  0  0  0  0  0  0  0
  -10.3560   20.5920   64.9540 F   0  0  0  0  0  0  0  0  0  0  0  0
   -8.4660   19.9040   66.0390 N   0  0  0  0  0  0  0  0  0  0  0  0
   -7.8460   19.0990   66.8990 C   0  0  0  0  0  0  0  0  0  0  0  0
   -8.5190   18.0480   67.5630 C   0  0  0  0  0  0  0  0  0  0  0  0
   -6.4930   19.3320   67.1600 C   0  0  0  0  0  0  0  0  0  0  0  0
   -7.7380   17.2360   68.4230 C   0  0  0  0  0  0  0  0  0  0  0  0
   -6.3980   17.5340   68.7100 C   0  0  0  0  0  0  0  0  0  0  0  0
   -5.6870   16.7670   69.7380 C   0  0  0  0  0  0  0  0  0  0  0  0
   -5.7700   18.5950   68.0930 C   0  0  0  0  0  0  0  0  0  0  0  0
   -6.2180   15.7830   70.2330 O   0  0  0  0  0  0  0  0  0  0  0  0
   -4.3450   17.3090   70.1920 C   0  0  0  0  0  0  0  0  0  0  0  0
   -3.6330   16.6490   70.9330 O   0  0  0  0  0  0  0  0  0  0  0  0
   -4.0550   18.7200   69.7210 C   0  0  0  0  0  0  0  0  0  0  0  0
   -4.4870   18.9720   68.3690 O   0  0  0  0  0  0  0  0  0  0  0  0
   -5.8850   20.3530   66.5330 F   0  0  0  0  0  0  0  0  0  0  0  0
   -4.6590   19.7400   70.6490 C   0  0  0  0  0  0  0  0  0  0  0  0
   -5.7960   20.4900   70.1600 O   0  0  0  0  0  0  0  0  0  0  0  0
   -4.7290   19.3750   72.0230 O   0  0  0  0  0  0  0  0  0  0  0  0
   -3.8260   20.4420   71.7070 C   0  0  0  0  0  0  0  0  0  0  0  0
   -4.2950   21.7670   72.0270 O   0  0  0  0  0  0  0  0  0  0  0  0
  -11.0850   15.5900   65.9440 O   0  0  0  0  0  0  0  0  0  0  0  0
  -10.6610   14.2610   65.5660 C   0  0  0  0  0  0  0  0  0  0  0  0
  -10.3310   13.4890   66.7180 O   0  0  0  0  0  0  0  0  0  0  0  0
   -9.9460   12.1790   66.4600 C   0  0  0  0  0  0  0  0  0  0  0  0
   -9.1350   11.5400   67.3090 C   0  0  0  0  0  0  0  0  0  0  0  0
  -10.4510   11.4170   65.2700 C   0  0  0  0  0  0  0  0  0  0  0  0
   -8.6280   12.1330   68.4390 O   0  0  0  0  0  0  0  0  0  0  0  0
  -11.4160   12.2090   64.3960 C   0  0  0  0  0  0  0  0  0  0  0  0
  -10.1220   10.2820   65.0000 O   0  0  0  0  0  0  0  0  0  0  0  0
  -11.8180   13.5770   64.8770 C   0  0  0  0  0  0  0  0  0  0  0  0
  -11.7830   11.8150   63.3100 O   0  0  0  0  0  0  0  0  0  0  0  0
  -12.9570   14.0070   64.7990 O   0  0  0  0  0  0  0  0  0  0  0  0
  -12.1580   15.3830   73.7260 C   0  0  0  0  0  0  0  0  0  0  0  0
  -13.2360   16.1470   74.2620 N   0  0  0  0  0  0  0  0  0  0  0  0
  -12.1480   16.7360   74.1410 N   0  0  0  0  0  0  0  0  0  0  0  0
  1 40  1  0  0  0  0
  1  2  2  0  0  0  0
  1  6  1  0  0  0  0
  2  3  1  0  0  0  0
  2 17  1  0  0  0  0
  3  4  1  0  0  0  0
  4  5  2  0  0  0  0
  4 15  1  0  0  0  0
  5  6  1  0  0  0  0
  5  7  1  0  0  0  0
  7  8  1  0  0  0  0
  7 13  1  0  0  0  0
  8  9  1  0  0  0  0
  9 10  2  0  0  0  0
  9 11  1  0  0  0  0
 11 12  1  0  0  0  0
 12 13  1  0  0  0  0
 12 16  1  0  0  0  0
 13 14  2  0  0  0  0
 14 15  1  0  0  0  0
 14 52  1  0  0  0  0
 17 18  2  0  0  0  0
 17 23  1  0  0  0  0
 18 19  1  0  0  0  0
 19 20  1  0  0  0  0
 19 21  2  0  0  0  0
 21 22  1  0  0  0  0
 22 23  2  0  0  0  0
 22 24  1  0  0  0  0
 23 25  1  0  0  0  0
 24 28  2  0  0  0  0
 24 34  1  0  0  0  0
 25 26  2  0  0  0  0
 26 27  1  0  0  0  0
 26 28  1  0  0  0  0
 27 29  2  0  0  0  0
 27 30  1  0  0  0  0
 28 33  1  0  0  0  0
 30 31  2  0  0  0  0
 30 32  1  0  0  0  0
 32 33  1  0  0  0  0
 32 35  1  0  0  0  0
 35 36  1  0  0  0  0
 35 37  1  0  0  0  0
 35 38  1  0  0  0  0
 37 38  1  0  0  0  0
 38 39  1  0  0  0  0
 40 41  1  0  0  0  0
 41 42  1  0  0  0  0
 41 49  1  0  0  0  0
 42 43  1  0  0  0  0
 43 44  2  0  0  0  0
 43 45  1  0  0  0  0
 44 46  1  0  0  0  0
 45 47  1  0  0  0  0
 45 48  2  0  0  0  0
 47 49  1  0  0  0  0
 47 50  2  0  0  0  0
 49 51  2  0  0  0  0
 52 53  1  0  0  0  0
 52 54  1  0  0  0  0
 53 54  2  0  0  0  0
M  CHG  2  15   1  19   1
M  END