
 OpenBabel11252020413D

 54 62  0  0  1  0  0  0  0  0999 V2000
  -11.0580   15.9630   67.5700 C   0  0  0  0  0  0  0  0  0  0  0  0
  -10.5210   17.0150   68.2410 C   0  0  0  0  0  0  0  0  0  0  0  0
  -10.8150   17.1920   69.6220 O   0  0  0  0  0  0  0  0  0  0  0  0
  -11.6060   16.2550   70.3280 C   0  0  0  0  0  0  0  0  0  0  0  0
  -12.0520   15.1470   69.7140 C   0  0  0  0  0  0  0  0  0  0  0  0
  -11.8560   14.8920   68.2600 C   0  0  0  0  0  0  0  0  0  0  0  0
  -12.8200   14.0700   70.4320 C   0  0  0  0  0  0  0  0  0  0  0  0
  -11.9810   12.9320   70.4600 O   0  0  0  0  0  0  0  0  0  0  0  0
  -12.4260   11.8320   71.1290 C   0  0  0  0  0  0  0  0  0  0  0  0
  -11.9010   10.7460   70.9580 O   0  0  0  0  0  0  0  0  0  0  0  0
  -13.4460   12.0320   71.9960 O   0  0  0  0  0  0  0  0  0  0  0  0
  -13.8940   13.3130   72.4370 C   0  0  0  0  0  0  0  0  0  0  0  0
  -13.1010   14.4240   71.8370 C   0  0  0  0  0  0  0  0  0  0  0  0
  -12.6840   15.5810   72.3990 C   0  0  0  0  0  0  0  0  0  0  0  0
  -11.9090   16.4840   71.6650 O   0  0  0  0  0  0  0  0  0  0  0  0
  -15.2130   13.5220   71.9810 O   0  0  0  0  0  0  0  0  0  0  0  0
   -9.6380   17.9600   67.5580 N   0  0  0  0  0  0  0  0  0  0  0  0
  -10.1570   18.7850   66.5940 C   0  0  0  0  0  0  0  0  0  0  0  0
   -9.4320   19.7110   65.9640 N   0  0  0  0  0  0  0  0  0  0  0  0
  -10.0230   20.5110   65.0530 F   0  0  0  0  0  0  0  0  0  0  0  0
   -8.1460   19.8420   66.1820 N   0  0  0  0  0  0  0  0  0  0  0  0
   -7.5400   19.0400   67.0570 C   0  0  0  0  0  0  0  0  0  0  0  0
   -8.2740   18.0660   67.7990 C   0  0  0  0  0  0  0  0  0  0  0  0
   -6.1450   19.1710   67.2390 C   0  0  0  0  0  0  0  0  0  0  0  0
   -7.5610   17.3000   68.7330 C   0  0  0  0  0  0  0  0  0  0  0  0
   -6.1670   17.4290   68.8860 C   0  0  0  0  0  0  0  0  0  0  0  0
   -5.4520   16.5030   69.7620 C   0  0  0  0  0  0  0  0  0  0  0  0
   -5.4600   18.3660   68.1700 C   0  0  0  0  0  0  0  0  0  0  0  0
   -6.0660   15.5370   70.1950 O   0  0  0  0  0  0  0  0  0  0  0  0
   -3.9980   16.7890   70.0720 C   0  0  0  0  0  0  0  0  0  0  0  0
   -3.4100   16.1110   70.9000 O   0  0  0  0  0  0  0  0  0  0  0  0
   -3.4250   18.0330   69.4190 C   0  0  0  0  0  0  0  0  0  0  0  0
   -4.1050   18.4930   68.2360 O   0  0  0  0  0  0  0  0  0  0  0  0
   -5.4510   20.2400   66.6460 N   0  0  0  0  0  0  0  0  0  0  0  0
   -3.2640   19.1710   70.3840 C   0  0  0  0  0  0  0  0  0  0  0  0
   -4.3290   19.3260   71.3530 O   0  0  0  0  0  0  0  0  0  0  0  0
   -1.9410   19.3290   70.8880 O   0  0  0  0  0  0  0  0  0  0  0  0
   -2.4400   20.3660   70.1690 C   0  0  0  0  0  0  0  0  0  0  0  0
   -2.6410   21.5060   70.5220 O   0  0  0  0  0  0  0  0  0  0  0  0
  -10.8530   15.7940   66.2170 O   0  0  0  0  0  0  0  0  0  0  0  0
  -10.2060   14.5830   65.7320 C   0  0  0  0  0  0  0  0  0  0  0  0
   -9.8700   13.7470   66.8210 O   0  0  0  0  0  0  0  0  0  0  0  0
   -9.3460   12.5190   66.4430 C   0  0  0  0  0  0  0  0  0  0  0  0
   -8.4220   11.9290   67.2100 C   0  0  0  0  0  0  0  0  0  0  0  0
   -9.8140   11.8040   65.2100 C   0  0  0  0  0  0  0  0  0  0  0  0
   -7.9330   12.5100   68.3550 O   0  0  0  0  0  0  0  0  0  0  0  0
  -10.8530   12.5710   64.4020 C   0  0  0  0  0  0  0  0  0  0  0  0
   -9.3950   10.7180   64.8580 O   0  0  0  0  0  0  0  0  0  0  0  0
  -11.2780   13.9300   64.8970 C   0  0  0  0  0  0  0  0  0  0  0  0
  -11.3140   12.1530   63.3560 O   0  0  0  0  0  0  0  0  0  0  0  0
  -12.3840   14.4260   64.7110 O   0  0  0  0  0  0  0  0  0  0  0  0
  -12.9990   16.0240   73.7820 C   0  0  0  0  0  0  0  0  0  0  0  0
  -12.2430   15.5050   74.8880 O   0  0  0  0  0  0  0  0  0  0  0  0
  -12.0720   16.8740   74.4800 O   0  0  0  0  0  0  0  0  0  0  0  0
  1 40  1  0  0  0  0
  1  2  2  0  0  0  0
  1  6  1  0  0  0  0
  2  3  1  0  0  0  0
  2 17  1  0  0  0  0
  3  4  1  0  0  0  0
  4  5  2  0  0  0  0
  4 15  1  0  0  0  0
  5  6  1  0  0  0  0
  5  7  1  0  0  0  0
  7  8  1  0  0  0  0
  7 13  1  0  0  0  0
  8  9  1  0  0  0  0
  9 10  2  0  0  0  0
  9 11  1  0  0  0  0
 11 12  1  0  0  0  0
 12 13  1  0  0  0  0
 12 16  1  0  0  0  0
 13 14  2  0  0  0  0
 14 15  1  0  0  0  0
 14 52  1  0  0  0  0
 17 18  2  0  0  0  0
 17 23  1  0  0  0  0
 18 19  1  0  0  0  0
 19 20  1  0  0  0  0
 19 21  2  0  0  0  0
 21 22  1  0  0  0  0
 22 23  2  0  0  0  0
 22 24  1  0  0  0  0
 23 25  1  0  0  0  0
 24 28  2  0  0  0  0
 24 34  1  0  0  0  0
 25 26  2  0  0  0  0
 26 27  1  0  0  0  0
 26 28  1  0  0  0  0
 27 29  2  0  0  0  0
 27 30  1  0  0  0  0
 28 33  1  0  0  0  0
 30 31  2  0  0  0  0
 30 32  1  0  0  0  0
 32 33  1  0  0  0  0
 32 35  1  0  0  0  0
 35 36  1  0  0  0  0
 35 37  1  0  0  0  0
 35 38  1  0  0  0  0
 37 38  1  0  0  0  0
 38 39  2  0  0  0  0
 40 41  1  0  0  0  0
 41 42  1  0  0  0  0
 41 49  1  0  0  0  0
 42 43  1  0  0  0  0
 43 44  2  0  0  0  0
 43 45  1  0  0  0  0
 44 46  1  0  0  0  0
 45 47  1  0  0  0  0
 45 48  2  0  0  0  0
 47 49  1  0  0  0  0
 47 50  2  0  0  0  0
 49 51  2  0  0  0  0
 52 53  1  0  0  0  0
 52 54  1  0  0  0  0
 53 54  1  0  0  0  0
M  CHG  3  15   1  17   1  19   1
M  END