
 OpenBabel11252023513D

 54 62  0  0  1  0  0  0  0  0999 V2000
  -10.1590   15.4260   67.6470 C   0  0  0  0  0  0  0  0  0  0  0  0
  -10.1920   16.6690   68.1700 C   0  0  0  0  0  0  0  0  0  0  0  0
  -10.8260   16.9960   69.3510 O   0  0  0  0  0  0  0  0  0  0  0  0
  -11.3950   15.9990   70.1060 C   0  0  0  0  0  0  0  0  0  0  0  0
  -11.4750   14.7000   69.6600 C   0  0  0  0  0  0  0  0  0  0  0  0
  -10.8820   14.2910   68.3490 C   0  0  0  0  0  0  0  0  0  0  0  0
  -12.1430   13.8150   70.4990 C   0  0  0  0  0  0  0  0  0  0  0  0
  -12.3400   12.5040   70.0550 O   0  0  0  0  0  0  0  0  0  0  0  0
  -12.7890   11.4900   70.9070 C   0  0  0  0  0  0  0  0  0  0  0  0
  -12.8280   10.3270   70.5290 O   0  0  0  0  0  0  0  0  0  0  0  0
  -13.0660   11.8520   72.1830 O   0  0  0  0  0  0  0  0  0  0  0  0
  -13.4270   13.1890   72.4980 C   0  0  0  0  0  0  0  0  0  0  0  0
  -12.6540   14.1990   71.7260 C   0  0  0  0  0  0  0  0  0  0  0  0
  -12.4990   15.5310   72.1180 C   0  0  0  0  0  0  0  0  0  0  0  0
  -11.8720   16.4220   71.2910 N   0  0  0  0  0  0  0  0  0  0  0  0
  -14.7970   13.4060   72.2120 O   0  0  0  0  0  0  0  0  0  0  0  0
   -9.5220   17.8490   67.5910 C   0  0  0  0  0  0  0  0  0  0  0  0
  -10.3170   18.8010   66.9570 C   0  0  0  0  0  0  0  0  0  0  0  0
   -9.7430   19.7850   66.2660 N   0  0  0  0  0  0  0  0  0  0  0  0
  -10.5200   20.6820   65.6260 F   0  0  0  0  0  0  0  0  0  0  0  0
   -8.4340   19.9040   66.1680 N   0  0  0  0  0  0  0  0  0  0  0  0
   -7.6420   19.0240   66.8150 C   0  0  0  0  0  0  0  0  0  0  0  0
   -8.1580   17.9550   67.5350 N   0  0  0  0  0  0  0  0  0  0  0  0
   -6.2390   19.2210   66.7850 C   0  0  0  0  0  0  0  0  0  0  0  0
   -7.3140   17.0790   68.1550 C   0  0  0  0  0  0  0  0  0  0  0  0
   -5.9460   17.3050   68.1850 C   0  0  0  0  0  0  0  0  0  0  0  0
   -5.0810   16.4790   69.0090 C   0  0  0  0  0  0  0  0  0  0  0  0
   -5.4010   18.3720   67.5180 C   0  0  0  0  0  0  0  0  0  0  0  0
   -5.4100   15.3410   69.2800 O   0  0  0  0  0  0  0  0  0  0  0  0
   -3.8920   17.1860   69.6170 C   0  0  0  0  0  0  0  0  0  0  0  0
   -3.4960   16.8640   70.7290 O   0  0  0  0  0  0  0  0  0  0  0  0
   -3.4540   18.4510   68.8950 C   0  0  0  0  0  0  0  0  0  0  0  0
   -4.0690   18.6850   67.6070 O   0  0  0  0  0  0  0  0  0  0  0  0
   -5.6430   20.1670   65.9240 N   0  0  0  0  0  0  0  0  0  0  0  0
   -3.6060   19.6260   69.8410 C   0  0  0  0  0  0  0  0  0  0  0  0
   -4.9170   19.8510   70.3960 O   0  0  0  0  0  0  0  0  0  0  0  0
   -2.4950   19.8770   70.7120 O   0  0  0  0  0  0  0  0  0  0  0  0
   -2.7550   20.8100   69.7910 C   0  0  0  0  0  0  0  0  0  0  0  0
   -2.0680   21.2530   68.8820 O   0  0  0  0  0  0  0  0  0  0  0  0
   -9.4070   15.1640   66.5090 O   0  0  0  0  0  0  0  0  0  0  0  0
   -9.9600   14.2480   65.5270 C   0  0  0  0  0  0  0  0  0  0  0  0
  -10.4060   13.0770   66.1950 O   0  0  0  0  0  0  0  0  0  0  0  0
  -10.9630   12.1620   65.3170 C   0  0  0  0  0  0  0  0  0  0  0  0
  -10.8540   10.8470   65.5280 C   0  0  0  0  0  0  0  0  0  0  0  0
  -11.7670   12.6520   64.1550 C   0  0  0  0  0  0  0  0  0  0  0  0
  -10.1590   10.3290   66.5910 O   0  0  0  0  0  0  0  0  0  0  0  0
  -12.2180   14.0860   64.2750 C   0  0  0  0  0  0  0  0  0  0  0  0
  -12.0540   11.9260   63.2070 O   0  0  0  0  0  0  0  0  0  0  0  0
  -11.1090   14.9720   64.8050 C   0  0  0  0  0  0  0  0  0  0  0  0
  -13.3040   14.1760   65.1020 F   0  0  0  0  0  0  0  0  0  0  0  0
  -11.1470   16.2040   64.7290 O   0  0  0  0  0  0  0  0  0  0  0  0
  -13.0210   16.0400   73.4450 C   0  0  0  0  0  0  0  0  0  0  0  0
  -12.3470   15.5770   74.6260 O   0  0  0  0  0  0  0  0  0  0  0  0
  -12.1910   16.9430   74.1930 O   0  0  0  0  0  0  0  0  0  0  0  0
  1 40  1  0  0  0  0
  1  2  2  0  0  0  0
  1  6  1  0  0  0  0
  2  3  1  0  0  0  0
  2 17  1  0  0  0  0
  3  4  1  0  0  0  0
  4  5  2  0  0  0  0
  4 15  1  0  0  0  0
  5  6  1  0  0  0  0
  5  7  1  0  0  0  0
  7  8  1  0  0  0  0
  7 13  2  0  0  0  0
  8  9  1  0  0  0  0
  9 10  2  0  0  0  0
  9 11  1  0  0  0  0
 11 12  1  0  0  0  0
 12 13  1  0  0  0  0
 12 16  1  0  0  0  0
 13 14  1  0  0  0  0
 14 15  2  0  0  0  0
 14 52  1  0  0  0  0
 17 18  2  0  0  0  0
 17 23  1  0  0  0  0
 18 19  1  0  0  0  0
 19 20  1  0  0  0  0
 19 21  2  0  0  0  0
 21 22  1  0  0  0  0
 22 23  2  0  0  0  0
 22 24  1  0  0  0  0
 23 25  1  0  0  0  0
 24 28  2  0  0  0  0
 24 34  1  0  0  0  0
 25 26  2  0  0  0  0
 26 27  1  0  0  0  0
 26 28  1  0  0  0  0
 27 29  2  0  0  0  0
 27 30  1  0  0  0  0
 28 33  1  0  0  0  0
 30 31  2  0  0  0  0
 30 32  1  0  0  0  0
 32 33  1  0  0  0  0
 32 35  1  0  0  0  0
 35 36  1  0  0  0  0
 35 37  1  0  0  0  0
 35 38  1  0  0  0  0
 37 38  1  0  0  0  0
 38 39  2  0  0  0  0
 40 41  1  0  0  0  0
 41 42  1  0  0  0  0
 41 49  1  0  0  0  0
 42 43  1  0  0  0  0
 43 44  2  0  0  0  0
 43 45  1  0  0  0  0
 44 46  1  0  0  0  0
 45 47  1  0  0  0  0
 45 48  2  0  0  0  0
 47 49  1  0  0  0  0
 47 50  1  0  0  0  0
 49 51  2  0  0  0  0
 52 53  1  0  0  0  0
 52 54  1  0  0  0  0
 53 54  1  0  0  0  0
M  CHG  2  19   1  23   1
M  END