
 OpenBabel09242006463D

 51 59  0  0  1  0  0  0  0  0999 V2000
  -10.6410   15.7830   67.3980 C   0  0  0  0  0  0  0  0  0  0  0  0
  -10.6470   16.9390   68.0980 C   0  0  0  0  0  0  0  0  0  0  0  0
  -11.2050   17.0660   69.3740 O   0  0  0  0  0  0  0  0  0  0  0  0
  -11.7040   15.9360   70.0120 C   0  0  0  0  0  0  0  0  0  0  0  0
  -11.7230   14.7460   69.4000 C   0  0  0  0  0  0  0  0  0  0  0  0
  -11.2580   14.5490   68.0060 C   0  0  0  0  0  0  0  0  0  0  0  0
  -12.2240   13.5620   70.1440 C   0  0  0  0  0  0  0  0  0  0  0  0
  -12.2150   12.3900   69.6010 N   0  0  0  0  0  0  0  0  0  0  0  0
  -12.6750   11.3080   70.3190 C   0  0  0  0  0  0  0  0  0  0  0  0
  -12.6680   10.2160   69.7650 O   0  0  0  0  0  0  0  0  0  0  0  0
  -13.1460   11.4010   71.6140 N   0  0  0  0  0  0  0  0  0  0  0  0
  -13.1720   12.5590   72.1790 C   0  0  0  0  0  0  0  0  0  0  0  0
  -12.7090   13.7830   71.5200 C   0  0  0  0  0  0  0  0  0  0  0  0
  -12.6720   15.0220   72.0510 C   0  0  0  0  0  0  0  0  0  0  0  0
  -12.1620   16.0740   71.2980 N   0  0  0  0  0  0  0  0  0  0  0  0
  -10.0460   18.1860   67.5900 C   0  0  0  0  0  0  0  0  0  0  0  0
  -10.8820   18.9560   66.8640 N   0  0  0  0  0  0  0  0  0  0  0  0
  -10.3700   20.1030   66.4100 C   0  0  0  0  0  0  0  0  0  0  0  0
   -9.1320   20.5610   66.6390 N   0  0  0  0  0  0  0  0  0  0  0  0
   -8.3230   19.7930   67.3720 C   0  0  0  0  0  0  0  0  0  0  0  0
   -8.7190   18.5490   67.8850 C   0  0  0  0  0  0  0  0  0  0  0  0
   -7.0410   20.2580   67.6510 C   0  0  0  0  0  0  0  0  0  0  0  0
   -7.7960   17.7810   68.6380 C   0  0  0  0  0  0  0  0  0  0  0  0
   -6.5160   18.2750   68.8980 C   0  0  0  0  0  0  0  0  0  0  0  0
   -6.1460   19.5290   68.4350 C   0  0  0  0  0  0  0  0  0  0  0  0
   -5.5460   17.4700   69.6490 C   0  0  0  0  0  0  0  0  0  0  0  0
   -4.9380   20.1170   68.6890 O   0  0  0  0  0  0  0  0  0  0  0  0
   -4.2550   19.6540   69.8610 C   0  0  0  0  0  0  0  0  0  0  0  0
   -4.2650   18.1560   70.0660 C   0  0  0  0  0  0  0  0  0  0  0  0
   -3.3540   17.5290   70.5890 O   0  0  0  0  0  0  0  0  0  0  0  0
   -5.7570   16.2960   69.9130 O   0  0  0  0  0  0  0  0  0  0  0  0
   -4.7580   20.3620   71.0820 C   0  0  0  0  0  0  0  0  0  0  0  0
   -6.1960   20.4080   71.2620 O   0  0  0  0  0  0  0  0  0  0  0  0
   -3.9970   20.1200   72.2660 O   0  0  0  0  0  0  0  0  0  0  0  0
   -4.0010   21.3840   71.8020 C   0  0  0  0  0  0  0  0  0  0  0  0
   -4.3830   22.4020   72.3340 O   0  0  0  0  0  0  0  0  0  0  0  0
  -10.0810   15.7130   66.1230 O   0  0  0  0  0  0  0  0  0  0  0  0
  -10.1540   14.4600   65.4270 C   0  0  0  0  0  0  0  0  0  0  0  0
  -10.1430   13.3430   66.3230 O   0  0  0  0  0  0  0  0  0  0  0  0
   -9.9040   12.1590   65.6500 C   0  0  0  0  0  0  0  0  0  0  0  0
   -8.9480   11.3050   66.0370 C   0  0  0  0  0  0  0  0  0  0  0  0
  -10.7330   11.8450   64.4590 C   0  0  0  0  0  0  0  0  0  0  0  0
   -8.1390   11.5340   67.1190 O   0  0  0  0  0  0  0  0  0  0  0  0
  -11.7170   12.9530   64.1220 C   0  0  0  0  0  0  0  0  0  0  0  0
  -10.6200   10.8410   63.7780 O   0  0  0  0  0  0  0  0  0  0  0  0
  -11.4190   14.3700   64.5820 C   0  0  0  0  0  0  0  0  0  0  0  0
  -12.7290   12.7040   63.4860 O   0  0  0  0  0  0  0  0  0  0  0  0
  -12.1090   15.3110   64.2180 O   0  0  0  0  0  0  0  0  0  0  0  0
  -13.1290   15.3590   73.4180 C   0  0  0  0  0  0  0  0  0  0  0  0
  -12.2720   15.2160   74.5630 O   0  0  0  0  0  0  0  0  0  0  0  0
  -12.6540   16.5270   74.1040 O   0  0  0  0  0  0  0  0  0  0  0  0
  1 37  1  0  0  0  0
  1  2  2  0  0  0  0
  1  6  1  0  0  0  0
  2  3  1  0  0  0  0
  2 16  1  0  0  0  0
  3  4  1  0  0  0  0
  4  5  2  0  0  0  0
  4 15  1  0  0  0  0
  5  6  1  0  0  0  0
  5  7  1  0  0  0  0
  7  8  2  0  0  0  0
  7 13  1  0  0  0  0
  8  9  1  0  0  0  0
  9 10  2  0  0  0  0
  9 11  1  0  0  0  0
 11 12  2  0  0  0  0
 12 13  1  0  0  0  0
 13 14  2  0  0  0  0
 14 15  1  0  0  0  0
 14 49  1  0  0  0  0
 16 17  2  0  0  0  0
 16 21  1  0  0  0  0
 17 18  1  0  0  0  0
 18 19  2  0  0  0  0
 19 20  1  0  0  0  0
 20 21  2  0  0  0  0
 20 22  1  0  0  0  0
 21 23  1  0  0  0  0
 22 25  2  0  0  0  0
 23 24  2  0  0  0  0
 24 25  1  0  0  0  0
 24 26  1  0  0  0  0
 25 27  1  0  0  0  0
 26 29  1  0  0  0  0
 26 31  2  0  0  0  0
 27 28  1  0  0  0  0
 28 29  1  0  0  0  0
 28 32  1  0  0  0  0
 29 30  2  0  0  0  0
 32 33  1  0  0  0  0
 32 34  1  0  0  0  0
 32 35  1  0  0  0  0
 34 35  1  0  0  0  0
 35 36  2  0  0  0  0
 37 38  1  0  0  0  0
 38 39  1  0  0  0  0
 38 46  1  0  0  0  0
 39 40  1  0  0  0  0
 40 41  2  0  0  0  0
 40 42  1  0  0  0  0
 41 43  1  0  0  0  0
 42 44  1  0  0  0  0
 42 45  2  0  0  0  0
 44 46  1  0  0  0  0
 44 47  2  0  0  0  0
 46 48  2  0  0  0  0
 49 50  1  0  0  0  0
 49 51  1  0  0  0  0
 50 51  1  0  0  0  0
M  END
