
 OpenBabel11232003073D

 54 62  0  0  1  0  0  0  0  0999 V2000
  -10.9550   15.7410   67.2430 C   0  0  0  0  0  0  0  0  0  0  0  0
  -10.6880   16.8680   67.9500 C   0  0  0  0  0  0  0  0  0  0  0  0
  -11.0950   17.0040   69.2960 O   0  0  0  0  0  0  0  0  0  0  0  0
  -11.7850   15.9550   69.9380 C   0  0  0  0  0  0  0  0  0  0  0  0
  -11.9820   14.7800   69.3120 C   0  0  0  0  0  0  0  0  0  0  0  0
  -11.5940   14.5530   67.8980 C   0  0  0  0  0  0  0  0  0  0  0  0
  -12.6360   13.5960   69.9600 C   0  0  0  0  0  0  0  0  0  0  0  0
  -11.6840   12.5570   70.0430 O   0  0  0  0  0  0  0  0  0  0  0  0
  -12.0810   11.4160   70.6740 C   0  0  0  0  0  0  0  0  0  0  0  0
  -11.4930   10.3640   70.4810 O   0  0  0  0  0  0  0  0  0  0  0  0
  -13.1480   11.5180   71.5130 O   0  0  0  0  0  0  0  0  0  0  0  0
  -13.5930   12.7070   71.9590 C   0  0  0  0  0  0  0  0  0  0  0  0
  -14.4760   12.8310   72.7930 O   0  0  0  0  0  0  0  0  0  0  0  0
  -13.0250   13.8970   71.3340 C   0  0  0  0  0  0  0  0  0  0  0  0
  -12.8700   15.1000   71.9280 C   0  0  0  0  0  0  0  0  0  0  0  0
  -12.2500   16.1430   71.2310 O   0  0  0  0  0  0  0  0  0  0  0  0
   -9.8720   17.9950   67.3650 C   0  0  0  0  0  0  0  0  0  0  0  0
  -10.4910   18.7940   66.3940 C   0  0  0  0  0  0  0  0  0  0  0  0
   -9.8850   19.8450   65.8420 N   0  0  0  0  0  0  0  0  0  0  0  0
  -10.5560   20.5890   64.9410 F   0  0  0  0  0  0  0  0  0  0  0  0
   -8.6510   20.1740   66.1340 N   0  0  0  0  0  0  0  0  0  0  0  0
   -7.9650   19.4420   67.0090 C   0  0  0  0  0  0  0  0  0  0  0  0
   -8.5210   18.3170   67.6660 C   0  0  0  0  0  0  0  0  0  0  0  0
   -6.6430   19.8090   67.2560 C   0  0  0  0  0  0  0  0  0  0  0  0
   -7.6750   17.6140   68.5600 C   0  0  0  0  0  0  0  0  0  0  0  0
   -6.3360   18.0030   68.7690 C   0  0  0  0  0  0  0  0  0  0  0  0
   -5.4730   17.2170   69.6490 C   0  0  0  0  0  0  0  0  0  0  0  0
   -5.8130   19.1040   68.1250 C   0  0  0  0  0  0  0  0  0  0  0  0
   -5.8650   16.1370   70.0650 O   0  0  0  0  0  0  0  0  0  0  0  0
   -4.1050   17.7790   69.9780 C   0  0  0  0  0  0  0  0  0  0  0  0
   -3.3190   17.1070   70.6280 O   0  0  0  0  0  0  0  0  0  0  0  0
   -3.8550   19.1980   69.5010 C   0  0  0  0  0  0  0  0  0  0  0  0
   -4.5370   19.5560   68.2860 O   0  0  0  0  0  0  0  0  0  0  0  0
   -6.1550   20.8940   66.6340 F   0  0  0  0  0  0  0  0  0  0  0  0
   -4.0860   20.1980   70.6090 C   0  0  0  0  0  0  0  0  0  0  0  0
   -4.9820   21.2840   70.3250 O   0  0  0  0  0  0  0  0  0  0  0  0
   -4.1900   19.6690   71.9370 O   0  0  0  0  0  0  0  0  0  0  0  0
   -3.1040   20.4240   71.6710 C   0  0  0  0  0  0  0  0  0  0  0  0
   -1.9240   20.1770   71.7320 O   0  0  0  0  0  0  0  0  0  0  0  0
  -10.6590   15.6410   65.8880 O   0  0  0  0  0  0  0  0  0  0  0  0
  -10.3610   14.3300   65.3490 C   0  0  0  0  0  0  0  0  0  0  0  0
   -9.9260   13.4390   66.3580 O   0  0  0  0  0  0  0  0  0  0  0  0
   -9.5660   12.1870   65.9140 C   0  0  0  0  0  0  0  0  0  0  0  0
   -8.4950   11.5600   66.4180 C   0  0  0  0  0  0  0  0  0  0  0  0
  -10.4050   11.4740   64.9090 C   0  0  0  0  0  0  0  0  0  0  0  0
   -7.6460   12.1330   67.3370 O   0  0  0  0  0  0  0  0  0  0  0  0
  -11.4100   12.3690   64.2020 C   0  0  0  0  0  0  0  0  0  0  0  0
  -10.2800   10.2950   64.6360 O   0  0  0  0  0  0  0  0  0  0  0  0
  -11.6070   13.7840   64.6890 C   0  0  0  0  0  0  0  0  0  0  0  0
  -11.9520   12.0200   63.1670 O   0  0  0  0  0  0  0  0  0  0  0  0
  -12.6220   14.4300   64.4720 O   0  0  0  0  0  0  0  0  0  0  0  0
  -13.2570   15.3710   73.3260 C   0  0  0  0  0  0  0  0  0  0  0  0
  -12.5630   16.4250   73.9880 N   0  0  0  0  0  0  0  0  0  0  0  0
  -12.2390   15.2660   74.3060 N   0  0  0  0  0  0  0  0  0  0  0  0
  1 40  1  0  0  0  0
  1  2  2  0  0  0  0
  1  6  1  0  0  0  0
  2  3  1  0  0  0  0
  2 17  1  0  0  0  0
  3  4  1  0  0  0  0
  4  5  2  0  0  0  0
  4 16  1  0  0  0  0
  5  6  1  0  0  0  0
  5  7  1  0  0  0  0
  7  8  1  0  0  0  0
  7 14  1  0  0  0  0
  8  9  1  0  0  0  0
  9 10  2  0  0  0  0
  9 11  1  0  0  0  0
 11 12  1  0  0  0  0
 12 13  2  0  0  0  0
 12 14  1  0  0  0  0
 14 15  2  0  0  0  0
 15 16  1  0  0  0  0
 15 52  1  0  0  0  0
 17 18  2  0  0  0  0
 17 23  1  0  0  0  0
 18 19  1  0  0  0  0
 19 20  1  0  0  0  0
 19 21  2  0  0  0  0
 21 22  1  0  0  0  0
 22 23  2  0  0  0  0
 22 24  1  0  0  0  0
 23 25  1  0  0  0  0
 24 28  2  0  0  0  0
 24 34  1  0  0  0  0
 25 26  2  0  0  0  0
 26 27  1  0  0  0  0
 26 28  1  0  0  0  0
 27 29  2  0  0  0  0
 27 30  1  0  0  0  0
 28 33  1  0  0  0  0
 30 31  2  0  0  0  0
 30 32  1  0  0  0  0
 32 33  1  0  0  0  0
 32 35  1  0  0  0  0
 35 36  1  0  0  0  0
 35 37  1  0  0  0  0
 35 38  1  0  0  0  0
 37 38  1  0  0  0  0
 38 39  2  0  0  0  0
 40 41  1  0  0  0  0
 41 42  1  0  0  0  0
 41 49  1  0  0  0  0
 42 43  1  0  0  0  0
 43 44  2  0  0  0  0
 43 45  1  0  0  0  0
 44 46  1  0  0  0  0
 45 47  1  0  0  0  0
 45 48  2  0  0  0  0
 47 49  1  0  0  0  0
 47 50  2  0  0  0  0
 49 51  2  0  0  0  0
 52 53  1  0  0  0  0
 52 54  1  0  0  0  0
 53 54  2  0  0  0  0
M  CHG  2  16   1  19   1
M  END