
 OpenBabel11172022463D

 53 61  0  0  1  0  0  0  0  0999 V2000
  -11.1160   15.7940   67.2310 C   0  0  0  0  0  0  0  0  0  0  0  0
  -10.6200   16.8530   67.9110 C   0  0  0  0  0  0  0  0  0  0  0  0
  -10.7710   17.0170   69.2890 O   0  0  0  0  0  0  0  0  0  0  0  0
  -11.4520   16.0510   70.0340 C   0  0  0  0  0  0  0  0  0  0  0  0
  -11.9660   14.9610   69.4440 C   0  0  0  0  0  0  0  0  0  0  0  0
  -11.8910   14.7380   67.9730 C   0  0  0  0  0  0  0  0  0  0  0  0
  -12.6760   13.9030   70.2340 C   0  0  0  0  0  0  0  0  0  0  0  0
  -11.9560   12.6890   70.0390 O   0  0  0  0  0  0  0  0  0  0  0  0
  -12.2570   11.5900   70.7640 C   0  0  0  0  0  0  0  0  0  0  0  0
  -11.8820   10.4780   70.4140 O   0  0  0  0  0  0  0  0  0  0  0  0
  -12.9560   11.7750   71.9100 O   0  0  0  0  0  0  0  0  0  0  0  0
  -13.4190   13.0430   72.3630 C   0  0  0  0  0  0  0  0  0  0  0  0
  -12.7340   14.1690   71.6900 C   0  0  0  0  0  0  0  0  0  0  0  0
  -12.2180   15.2950   72.2470 C   0  0  0  0  0  0  0  0  0  0  0  0
  -11.5780   16.2350   71.4120 N   0  0  0  0  0  0  0  0  0  0  0  0
  -11.1690   17.4560   71.9430 O   0  0  0  0  0  0  0  0  0  0  0  0
  -14.8030   13.1440   72.0710 O   0  0  0  0  0  0  0  0  0  0  0  0
   -9.8530   17.9400   67.2750 C   0  0  0  0  0  0  0  0  0  0  0  0
  -10.4590   18.6630   66.2620 C   0  0  0  0  0  0  0  0  0  0  0  0
   -9.8340   19.6640   65.6280 N   0  0  0  0  0  0  0  0  0  0  0  0
   -8.5500   19.9970   65.9980 N   0  0  0  0  0  0  0  0  0  0  0  0
   -7.8900   19.3450   66.9550 C   0  0  0  0  0  0  0  0  0  0  0  0
   -8.5190   18.2750   67.6200 C   0  0  0  0  0  0  0  0  0  0  0  0
   -6.6340   19.7190   67.2440 N   0  0  0  0  0  0  0  0  0  0  0  0
   -7.7610   17.5790   68.5850 C   0  0  0  0  0  0  0  0  0  0  0  0
   -6.4490   17.9660   68.8490 C   0  0  0  0  0  0  0  0  0  0  0  0
   -5.9350   19.0540   68.1810 C   0  0  0  0  0  0  0  0  0  0  0  0
   -5.6060   17.2180   69.7780 C   0  0  0  0  0  0  0  0  0  0  0  0
   -4.6720   19.5430   68.3620 O   0  0  0  0  0  0  0  0  0  0  0  0
   -4.0040   19.1730   69.5680 C   0  0  0  0  0  0  0  0  0  0  0  0
   -4.2050   17.7390   69.9940 C   0  0  0  0  0  0  0  0  0  0  0  0
   -3.3420   17.0420   70.5090 O   0  0  0  0  0  0  0  0  0  0  0  0
   -6.0010   16.2040   70.3300 O   0  0  0  0  0  0  0  0  0  0  0  0
   -4.3490   20.1120   70.6790 C   0  0  0  0  0  0  0  0  0  0  0  0
   -5.5070   20.9570   70.4730 O   0  0  0  0  0  0  0  0  0  0  0  0
   -4.2350   19.5370   71.9840 O   0  0  0  0  0  0  0  0  0  0  0  0
   -3.4050   20.5630   71.7050 C   0  0  0  0  0  0  0  0  0  0  0  0
   -3.2990   21.6330   72.2540 O   0  0  0  0  0  0  0  0  0  0  0  0
  -11.0040   15.6920   65.8480 O   0  0  0  0  0  0  0  0  0  0  0  0
  -10.7230   14.3980   65.2730 C   0  0  0  0  0  0  0  0  0  0  0  0
  -10.5140   13.3840   66.2640 O   0  0  0  0  0  0  0  0  0  0  0  0
  -10.0540   12.1940   65.7360 C   0  0  0  0  0  0  0  0  0  0  0  0
   -9.0390   11.5190   66.2920 C   0  0  0  0  0  0  0  0  0  0  0  0
  -10.7220   11.6220   64.5390 C   0  0  0  0  0  0  0  0  0  0  0  0
   -8.3470   11.9780   67.3850 O   0  0  0  0  0  0  0  0  0  0  0  0
  -11.8500   12.4920   64.0210 C   0  0  0  0  0  0  0  0  0  0  0  0
  -10.3890   10.5880   63.9890 O   0  0  0  0  0  0  0  0  0  0  0  0
  -11.8990   13.9600   64.4040 C   0  0  0  0  0  0  0  0  0  0  0  0
  -12.7110   12.0050   63.3030 O   0  0  0  0  0  0  0  0  0  0  0  0
  -12.7970   14.6820   63.9960 O   0  0  0  0  0  0  0  0  0  0  0  0
  -12.3140   15.5740   73.7080 C   0  0  0  0  0  0  0  0  0  0  0  0
  -12.3090   16.9290   74.1960 O   0  0  0  0  0  0  0  0  0  0  0  0
  -13.4740   16.1050   74.3690 O   0  0  0  0  0  0  0  0  0  0  0  0
  1 39  1  0  0  0  0
  1  2  2  0  0  0  0
  1  6  1  0  0  0  0
  2  3  1  0  0  0  0
  2 18  1  0  0  0  0
  3  4  1  0  0  0  0
  4  5  2  0  0  0  0
  4 15  1  0  0  0  0
  5  6  1  0  0  0  0
  5  7  1  0  0  0  0
  7  8  1  0  0  0  0
  7 13  1  0  0  0  0
  8  9  1  0  0  0  0
  9 10  2  0  0  0  0
  9 11  1  0  0  0  0
 11 12  1  0  0  0  0
 12 13  1  0  0  0  0
 12 17  1  0  0  0  0
 13 14  2  0  0  0  0
 14 15  1  0  0  0  0
 14 51  1  0  0  0  0
 15 16  1  0  0  0  0
 18 19  2  0  0  0  0
 18 23  1  0  0  0  0
 19 20  1  0  0  0  0
 20 21  2  0  0  0  0
 21 22  1  0  0  0  0
 22 23  2  0  0  0  0
 22 24  1  0  0  0  0
 23 25  1  0  0  0  0
 24 27  2  0  0  0  0
 25 26  2  0  0  0  0
 26 27  1  0  0  0  0
 26 28  1  0  0  0  0
 27 29  1  0  0  0  0
 28 31  1  0  0  0  0
 28 33  2  0  0  0  0
 29 30  1  0  0  0  0
 30 31  1  0  0  0  0
 30 34  1  0  0  0  0
 31 32  2  0  0  0  0
 34 35  1  0  0  0  0
 34 36  1  0  0  0  0
 34 37  1  0  0  0  0
 36 37  1  0  0  0  0
 37 38  2  0  0  0  0
 39 40  1  0  0  0  0
 40 41  1  0  0  0  0
 40 48  1  0  0  0  0
 41 42  1  0  0  0  0
 42 43  2  0  0  0  0
 42 44  1  0  0  0  0
 43 45  1  0  0  0  0
 44 46  1  0  0  0  0
 44 47  2  0  0  0  0
 46 48  1  0  0  0  0
 46 49  2  0  0  0  0
 48 50  2  0  0  0  0
 51 52  1  0  0  0  0
 51 53  1  0  0  0  0
 52 53  1  0  0  0  0
M  END
