
 OpenBabel11252003253D

 54 63  0  0  1  0  0  0  0  0999 V2000
  -10.9020   15.5330   66.9950 C   0  0  0  0  0  0  0  0  0  0  0  0
  -10.5800   16.6690   67.6580 C   0  0  0  0  0  0  0  0  0  0  0  0
  -10.9500   16.8500   69.0040 O   0  0  0  0  0  0  0  0  0  0  0  0
  -11.5630   15.8230   69.7280 C   0  0  0  0  0  0  0  0  0  0  0  0
  -11.9720   14.6990   69.1150 C   0  0  0  0  0  0  0  0  0  0  0  0
  -11.7380   14.4640   67.6580 C   0  0  0  0  0  0  0  0  0  0  0  0
  -12.6890   13.5960   69.8490 C   0  0  0  0  0  0  0  0  0  0  0  0
  -11.9500   12.4060   69.6960 O   0  0  0  0  0  0  0  0  0  0  0  0
  -12.4880   11.3020   70.2870 C   0  0  0  0  0  0  0  0  0  0  0  0
  -12.2500   10.1870   69.8550 O   0  0  0  0  0  0  0  0  0  0  0  0
  -13.2740   11.5200   71.3740 O   0  0  0  0  0  0  0  0  0  0  0  0
  -13.3150   12.7100   71.9980 C   0  0  0  0  0  0  0  0  0  0  0  0
  -13.8630   12.8770   73.0770 O   0  0  0  0  0  0  0  0  0  0  0  0
  -12.7420   13.8560   71.2930 C   0  0  0  0  0  0  0  0  0  0  0  0
  -12.3020   14.9940   71.8770 C   0  0  0  0  0  0  0  0  0  0  0  0
  -11.7420   16.0000   71.0850 O   0  0  0  0  0  0  0  0  0  0  0  0
   -9.8760   17.8530   67.0310 C   0  0  0  0  0  0  0  0  0  0  0  0
  -10.5950   18.7220   66.2060 C   0  0  0  0  0  0  0  0  0  0  0  0
  -10.0470   19.8380   65.7150 N   0  0  0  0  0  0  0  0  0  0  0  0
  -10.7810   20.6250   64.9050 F   0  0  0  0  0  0  0  0  0  0  0  0
   -8.8290   20.2270   66.0270 N   0  0  0  0  0  0  0  0  0  0  0  0
   -8.0720   19.4750   66.8280 C   0  0  0  0  0  0  0  0  0  0  0  0
   -8.5380   18.2340   67.3200 C   0  0  0  0  0  0  0  0  0  0  0  0
   -6.7910   19.9520   67.2040 C   0  0  0  0  0  0  0  0  0  0  0  0
   -7.6500   17.4730   68.1060 C   0  0  0  0  0  0  0  0  0  0  0  0
   -6.4290   17.9940   68.5470 C   0  0  0  0  0  0  0  0  0  0  0  0
   -5.9970   19.2300   68.1200 C   0  0  0  0  0  0  0  0  0  0  0  0
   -5.7040   17.2880   69.5980 C   0  0  0  0  0  0  0  0  0  0  0  0
   -4.8110   19.7870   68.5160 O   0  0  0  0  0  0  0  0  0  0  0  0
   -4.0920   19.2020   69.6340 C   0  0  0  0  0  0  0  0  0  0  0  0
   -4.7070   18.0940   70.3840 C   0  0  0  0  0  0  0  0  0  0  0  0
   -2.6940   19.1430   69.5100 O   0  0  0  0  0  0  0  0  0  0  0  0
   -3.2300   20.1220   70.4540 C   0  0  0  0  0  0  0  0  0  0  0  0
   -4.5490   17.8970   71.5770 O   0  0  0  0  0  0  0  0  0  0  0  0
   -3.4660   21.4930   69.9510 O   0  0  0  0  0  0  0  0  0  0  0  0
   -2.3020   21.2160   70.4960 C   0  0  0  0  0  0  0  0  0  0  0  0
   -1.6860   21.7500   71.3970 O   0  0  0  0  0  0  0  0  0  0  0  0
   -6.0530   16.1660   69.9330 O   0  0  0  0  0  0  0  0  0  0  0  0
   -6.4150   21.2790   66.8890 N   0  0  0  0  0  0  0  0  0  0  0  0
  -10.5220   15.3480   65.6740 O   0  0  0  0  0  0  0  0  0  0  0  0
  -10.3000   14.0070   65.1910 C   0  0  0  0  0  0  0  0  0  0  0  0
  -10.0380   13.1050   66.2590 O   0  0  0  0  0  0  0  0  0  0  0  0
   -9.7250   11.8180   65.8510 C   0  0  0  0  0  0  0  0  0  0  0  0
   -8.8930   11.0690   66.5820 C   0  0  0  0  0  0  0  0  0  0  0  0
  -10.3390   11.2310   64.6190 C   0  0  0  0  0  0  0  0  0  0  0  0
   -8.2900   11.5350   67.7280 O   0  0  0  0  0  0  0  0  0  0  0  0
  -11.3870   12.1280   63.9710 C   0  0  0  0  0  0  0  0  0  0  0  0
  -10.0000   10.1670   64.1330 O   0  0  0  0  0  0  0  0  0  0  0  0
  -11.5650   13.5230   64.5230 C   0  0  0  0  0  0  0  0  0  0  0  0
  -12.0160   11.7830   62.9890 O   0  0  0  0  0  0  0  0  0  0  0  0
  -12.6090   14.1530   64.4490 O   0  0  0  0  0  0  0  0  0  0  0  0
  -12.3060   15.2760   73.3310 C   0  0  0  0  0  0  0  0  0  0  0  0
  -13.3590   16.1250   73.7970 N   0  0  0  0  0  0  0  0  0  0  0  0
  -12.2330   16.6410   73.7120 N   0  0  0  0  0  0  0  0  0  0  0  0
  1 40  1  0  0  0  0
  1  2  2  0  0  0  0
  1  6  1  0  0  0  0
  2  3  1  0  0  0  0
  2 17  1  0  0  0  0
  3  4  1  0  0  0  0
  4  5  2  0  0  0  0
  4 16  1  0  0  0  0
  5  6  1  0  0  0  0
  5  7  1  0  0  0  0
  7  8  1  0  0  0  0
  7 14  1  0  0  0  0
  8  9  1  0  0  0  0
  9 10  2  0  0  0  0
  9 11  1  0  0  0  0
 11 12  1  0  0  0  0
 12 13  2  0  0  0  0
 12 14  1  0  0  0  0
 14 15  2  0  0  0  0
 15 16  1  0  0  0  0
 15 52  1  0  0  0  0
 17 18  2  0  0  0  0
 17 23  1  0  0  0  0
 18 19  1  0  0  0  0
 19 20  1  0  0  0  0
 19 21  2  0  0  0  0
 21 22  1  0  0  0  0
 22 23  2  0  0  0  0
 22 24  1  0  0  0  0
 23 25  1  0  0  0  0
 24 27  2  0  0  0  0
 24 39  1  0  0  0  0
 25 26  2  0  0  0  0
 26 27  1  0  0  0  0
 26 28  1  0  0  0  0
 27 29  1  0  0  0  0
 28 31  1  0  0  0  0
 28 38  2  0  0  0  0
 29 30  1  0  0  0  0
 30 31  1  0  0  0  0
 30 32  1  0  0  0  0
 30 33  1  0  0  0  0
 31 34  2  0  0  0  0
 32 33  1  0  0  0  0
 33 35  1  0  0  0  0
 33 36  1  0  0  0  0
 35 36  1  0  0  0  0
 36 37  2  0  0  0  0
 40 41  1  0  0  0  0
 41 42  1  0  0  0  0
 41 49  1  0  0  0  0
 42 43  1  0  0  0  0
 43 44  2  0  0  0  0
 43 45  1  0  0  0  0
 44 46  1  0  0  0  0
 45 47  1  0  0  0  0
 45 48  2  0  0  0  0
 47 49  1  0  0  0  0
 47 50  2  0  0  0  0
 49 51  2  0  0  0  0
 52 53  1  0  0  0  0
 52 54  1  0  0  0  0
 53 54  2  0  0  0  0
M  CHG  2  16   1  19   1
M  END