
 OpenBabel11212002313D

 53 61  0  0  1  0  0  0  0  0999 V2000
  -10.9430   15.9990   67.3740 C   0  0  0  0  0  0  0  0  0  0  0  0
  -10.5630   17.0800   68.0990 C   0  0  0  0  0  0  0  0  0  0  0  0
  -10.8600   17.2060   69.4660 O   0  0  0  0  0  0  0  0  0  0  0  0
  -11.5090   16.1690   70.1400 C   0  0  0  0  0  0  0  0  0  0  0  0
  -11.9500   15.0800   69.4900 C   0  0  0  0  0  0  0  0  0  0  0  0
  -11.7520   14.9040   68.0230 C   0  0  0  0  0  0  0  0  0  0  0  0
  -12.6450   13.9440   70.1840 C   0  0  0  0  0  0  0  0  0  0  0  0
  -11.8440   12.7860   70.0020 O   0  0  0  0  0  0  0  0  0  0  0  0
  -12.2920   11.6290   70.5540 C   0  0  0  0  0  0  0  0  0  0  0  0
  -11.8790   10.5420   70.1880 O   0  0  0  0  0  0  0  0  0  0  0  0
  -13.2220   11.7680   71.5270 O   0  0  0  0  0  0  0  0  0  0  0  0
  -13.3570   12.9660   72.2820 C   0  0  0  0  0  0  0  0  0  0  0  0
  -12.7140   14.1490   71.6470 C   0  0  0  0  0  0  0  0  0  0  0  0
  -12.2290   15.2570   72.2560 C   0  0  0  0  0  0  0  0  0  0  0  0
  -11.6620   16.2830   71.5030 O   0  0  0  0  0  0  0  0  0  0  0  0
  -14.7300   13.2930   72.3550 O   0  0  0  0  0  0  0  0  0  0  0  0
   -9.7580   18.2140   67.5630 C   0  0  0  0  0  0  0  0  0  0  0  0
  -10.3670   19.0940   66.6790 C   0  0  0  0  0  0  0  0  0  0  0  0
   -9.7340   20.1490   66.1380 N   0  0  0  0  0  0  0  0  0  0  0  0
   -8.4410   20.4100   66.4870 N   0  0  0  0  0  0  0  0  0  0  0  0
   -7.7710   19.6120   67.3280 C   0  0  0  0  0  0  0  0  0  0  0  0
   -8.3910   18.4610   67.8750 C   0  0  0  0  0  0  0  0  0  0  0  0
   -6.4430   19.9060   67.6650 C   0  0  0  0  0  0  0  0  0  0  0  0
   -7.5990   17.6210   68.6910 C   0  0  0  0  0  0  0  0  0  0  0  0
   -6.2640   17.9390   68.9940 C   0  0  0  0  0  0  0  0  0  0  0  0
   -5.4610   17.0190   69.8060 C   0  0  0  0  0  0  0  0  0  0  0  0
   -5.6830   19.0980   68.5120 C   0  0  0  0  0  0  0  0  0  0  0  0
   -5.9170   15.9480   70.1720 O   0  0  0  0  0  0  0  0  0  0  0  0
   -4.0430   17.4370   70.1250 C   0  0  0  0  0  0  0  0  0  0  0  0
   -3.2340   16.6230   70.5470 O   0  0  0  0  0  0  0  0  0  0  0  0
   -3.7580   18.9060   69.9190 C   0  0  0  0  0  0  0  0  0  0  0  0
   -4.4020   19.4920   68.7810 O   0  0  0  0  0  0  0  0  0  0  0  0
   -5.8690   21.0140   67.1610 F   0  0  0  0  0  0  0  0  0  0  0  0
   -4.0630   19.6910   71.1560 C   0  0  0  0  0  0  0  0  0  0  0  0
   -5.1250   19.1800   72.0000 O   0  0  0  0  0  0  0  0  0  0  0  0
   -2.9220   20.2020   71.8460 O   0  0  0  0  0  0  0  0  0  0  0  0
   -3.7550   21.1140   71.3000 C   0  0  0  0  0  0  0  0  0  0  0  0
   -4.3850   21.9970   71.8290 O   0  0  0  0  0  0  0  0  0  0  0  0
  -10.6030   15.8510   66.0300 O   0  0  0  0  0  0  0  0  0  0  0  0
  -10.5200   14.5130   65.4820 C   0  0  0  0  0  0  0  0  0  0  0  0
  -10.3760   13.5290   66.5130 O   0  0  0  0  0  0  0  0  0  0  0  0
  -10.1400   12.2510   66.0370 C   0  0  0  0  0  0  0  0  0  0  0  0
   -9.3430   11.3850   66.6810 C   0  0  0  0  0  0  0  0  0  0  0  0
  -10.8140   11.7790   64.7970 C   0  0  0  0  0  0  0  0  0  0  0  0
   -8.6660   11.6910   67.8330 O   0  0  0  0  0  0  0  0  0  0  0  0
  -11.8850   12.7320   64.3120 C   0  0  0  0  0  0  0  0  0  0  0  0
  -10.5120   10.7660   64.1920 O   0  0  0  0  0  0  0  0  0  0  0  0
  -11.7480   14.2060   64.6370 C   0  0  0  0  0  0  0  0  0  0  0  0
  -12.8430   12.3110   63.6880 O   0  0  0  0  0  0  0  0  0  0  0  0
  -12.5220   15.0340   64.1820 O   0  0  0  0  0  0  0  0  0  0  0  0
  -12.2610   15.4830   73.7240 C   0  0  0  0  0  0  0  0  0  0  0  0
  -12.1080   16.8110   74.2530 O   0  0  0  0  0  0  0  0  0  0  0  0
  -13.3790   16.1400   74.3390 O   0  0  0  0  0  0  0  0  0  0  0  0
  1 39  1  0  0  0  0
  1  2  2  0  0  0  0
  1  6  1  0  0  0  0
  2  3  1  0  0  0  0
  2 17  1  0  0  0  0
  3  4  1  0  0  0  0
  4  5  2  0  0  0  0
  4 15  1  0  0  0  0
  5  6  1  0  0  0  0
  5  7  1  0  0  0  0
  7  8  1  0  0  0  0
  7 13  1  0  0  0  0
  8  9  1  0  0  0  0
  9 10  2  0  0  0  0
  9 11  1  0  0  0  0
 11 12  1  0  0  0  0
 12 13  1  0  0  0  0
 12 16  1  0  0  0  0
 13 14  2  0  0  0  0
 14 15  1  0  0  0  0
 14 51  1  0  0  0  0
 17 18  2  0  0  0  0
 17 22  1  0  0  0  0
 18 19  1  0  0  0  0
 19 20  2  0  0  0  0
 20 21  1  0  0  0  0
 21 22  2  0  0  0  0
 21 23  1  0  0  0  0
 22 24  1  0  0  0  0
 23 27  2  0  0  0  0
 23 33  1  0  0  0  0
 24 25  2  0  0  0  0
 25 26  1  0  0  0  0
 25 27  1  0  0  0  0
 26 28  2  0  0  0  0
 26 29  1  0  0  0  0
 27 32  1  0  0  0  0
 29 30  2  0  0  0  0
 29 31  1  0  0  0  0
 31 32  1  0  0  0  0
 31 34  1  0  0  0  0
 34 35  1  0  0  0  0
 34 36  1  0  0  0  0
 34 37  1  0  0  0  0
 36 37  1  0  0  0  0
 37 38  2  0  0  0  0
 39 40  1  0  0  0  0
 40 41  1  0  0  0  0
 40 48  1  0  0  0  0
 41 42  1  0  0  0  0
 42 43  2  0  0  0  0
 42 44  1  0  0  0  0
 43 45  1  0  0  0  0
 44 46  1  0  0  0  0
 44 47  2  0  0  0  0
 46 48  1  0  0  0  0
 46 49  2  0  0  0  0
 48 50  2  0  0  0  0
 51 52  1  0  0  0  0
 51 53  1  0  0  0  0
 52 53  1  0  0  0  0
M  CHG  1  15   1
M  END