
 OpenBabel09222010353D

 51 59  0  0  1  0  0  0  0  0999 V2000
   -9.5390   15.7990   67.7090 C   0  0  0  0  0  0  0  0  0  0  0  0
   -9.6770   17.0000   68.3030 C   0  0  0  0  0  0  0  0  0  0  0  0
  -10.4010   17.1630   69.6150 C   0  0  0  0  0  0  0  0  0  0  0  0
  -11.0880   15.8950   70.0610 C   0  0  0  0  0  0  0  0  0  0  0  0
  -10.8270   14.7160   69.3920 C   0  0  0  0  0  0  0  0  0  0  0  0
   -9.9990   14.6300   68.3060 O   0  0  0  0  0  0  0  0  0  0  0  0
  -11.4700   13.5630   69.8250 C   0  0  0  0  0  0  0  0  0  0  0  0
  -11.2110   12.3420   69.1930 N   0  0  0  0  0  0  0  0  0  0  0  0
  -11.8860   11.1910   69.4340 C   0  0  0  0  0  0  0  0  0  0  0  0
  -11.6390   10.1590   68.8200 O   0  0  0  0  0  0  0  0  0  0  0  0
  -12.8690   11.2450   70.3620 N   0  0  0  0  0  0  0  0  0  0  0  0
  -13.0340   12.3220   71.3010 C   0  0  0  0  0  0  0  0  0  0  0  0
  -12.3790   13.6020   70.8820 C   0  0  0  0  0  0  0  0  0  0  0  0
  -12.5900   14.8220   71.5420 C   0  0  0  0  0  0  0  0  0  0  0  0
  -11.9340   15.9540   71.1270 N   0  0  0  0  0  0  0  0  0  0  0  0
   -9.1600   18.2390   67.7000 C   0  0  0  0  0  0  0  0  0  0  0  0
  -10.0240   18.8330   66.8420 N   0  0  0  0  0  0  0  0  0  0  0  0
   -9.6200   19.9800   66.2580 C   0  0  0  0  0  0  0  0  0  0  0  0
   -8.3980   20.5830   66.5010 C   0  0  0  0  0  0  0  0  0  0  0  0
   -7.5100   19.9750   67.3920 C   0  0  0  0  0  0  0  0  0  0  0  0
   -7.8830   18.7620   68.0150 C   0  0  0  0  0  0  0  0  0  0  0  0
   -6.2570   20.5560   67.6740 C   0  0  0  0  0  0  0  0  0  0  0  0
   -6.9610   18.1550   68.8970 C   0  0  0  0  0  0  0  0  0  0  0  0
   -5.7140   18.7390   69.1430 C   0  0  0  0  0  0  0  0  0  0  0  0
   -5.3600   19.9470   68.5540 C   0  0  0  0  0  0  0  0  0  0  0  0
   -4.7510   18.0570   70.0110 C   0  0  0  0  0  0  0  0  0  0  0  0
   -4.1800   20.6040   68.7570 O   0  0  0  0  0  0  0  0  0  0  0  0
   -3.3150   20.1130   69.7900 C   0  0  0  0  0  0  0  0  0  0  0  0
   -3.3580   18.6250   70.0150 C   0  0  0  0  0  0  0  0  0  0  0  0
   -2.3870   17.9140   70.2270 O   0  0  0  0  0  0  0  0  0  0  0  0
   -5.0460   17.0910   70.6940 O   0  0  0  0  0  0  0  0  0  0  0  0
   -3.5600   20.8550   71.0740 C   0  0  0  0  0  0  0  0  0  0  0  0
   -4.6430   21.8090   71.0880 O   0  0  0  0  0  0  0  0  0  0  0  0
   -3.4590   20.0860   72.2750 O   0  0  0  0  0  0  0  0  0  0  0  0
   -2.4970   20.9980   72.0570 C   0  0  0  0  0  0  0  0  0  0  0  0
   -1.2910   20.8610   71.9890 O   0  0  0  0  0  0  0  0  0  0  0  0
   -8.9120   15.6940   66.4720 O   0  0  0  0  0  0  0  0  0  0  0  0
   -9.5650   14.7670   65.5960 C   0  0  0  0  0  0  0  0  0  0  0  0
   -9.9050   13.5550   66.2830 O   0  0  0  0  0  0  0  0  0  0  0  0
  -10.3960   12.5730   65.4400 C   0  0  0  0  0  0  0  0  0  0  0  0
  -10.1070   11.2860   65.6650 C   0  0  0  0  0  0  0  0  0  0  0  0
  -11.2820   12.9240   64.2970 C   0  0  0  0  0  0  0  0  0  0  0  0
   -9.3230   10.8470   66.7020 O   0  0  0  0  0  0  0  0  0  0  0  0
  -11.6880   14.3840   64.2840 C   0  0  0  0  0  0  0  0  0  0  0  0
  -11.6320   12.1470   63.4270 O   0  0  0  0  0  0  0  0  0  0  0  0
  -10.8210   15.3940   65.0040 C   0  0  0  0  0  0  0  0  0  0  0  0
  -12.7030   14.7340   63.7020 O   0  0  0  0  0  0  0  0  0  0  0  0
  -11.1120   16.5800   65.0180 O   0  0  0  0  0  0  0  0  0  0  0  0
  -13.4970   14.9710   72.7510 C   0  0  0  0  0  0  0  0  0  0  0  0
  -12.8550   15.2110   74.0140 O   0  0  0  0  0  0  0  0  0  0  0  0
  -13.6510   16.2400   73.4040 O   0  0  0  0  0  0  0  0  0  0  0  0
  1 37  1  0  0  0  0
  1  2  2  0  0  0  0
  1  6  1  0  0  0  0
  2  3  1  0  0  0  0
  2 16  1  0  0  0  0
  3  4  1  0  0  0  0
  4  5  2  0  0  0  0
  4 15  1  0  0  0  0
  5  6  1  0  0  0  0
  5  7  1  0  0  0  0
  7  8  1  0  0  0  0
  7 13  2  0  0  0  0
  8  9  1  0  0  0  0
  9 10  2  0  0  0  0
  9 11  1  0  0  0  0
 11 12  1  0  0  0  0
 12 13  1  0  0  0  0
 13 14  1  0  0  0  0
 14 15  2  0  0  0  0
 14 49  1  0  0  0  0
 16 17  2  0  0  0  0
 16 21  1  0  0  0  0
 17 18  1  0  0  0  0
 18 19  2  0  0  0  0
 19 20  1  0  0  0  0
 20 21  2  0  0  0  0
 20 22  1  0  0  0  0
 21 23  1  0  0  0  0
 22 25  2  0  0  0  0
 23 24  2  0  0  0  0
 24 25  1  0  0  0  0
 24 26  1  0  0  0  0
 25 27  1  0  0  0  0
 26 29  1  0  0  0  0
 26 31  2  0  0  0  0
 27 28  1  0  0  0  0
 28 29  1  0  0  0  0
 28 32  1  0  0  0  0
 29 30  2  0  0  0  0
 32 33  1  0  0  0  0
 32 34  1  0  0  0  0
 32 35  1  0  0  0  0
 34 35  1  0  0  0  0
 35 36  2  0  0  0  0
 37 38  1  0  0  0  0
 38 39  1  0  0  0  0
 38 46  1  0  0  0  0
 39 40  1  0  0  0  0
 40 41  2  0  0  0  0
 40 42  1  0  0  0  0
 41 43  1  0  0  0  0
 42 44  1  0  0  0  0
 42 45  2  0  0  0  0
 44 46  1  0  0  0  0
 44 47  2  0  0  0  0
 46 48  2  0  0  0  0
 49 50  1  0  0  0  0
 49 51  1  0  0  0  0
 50 51  1  0  0  0  0
M  END
