
 OpenBabel11212001203D

 52 60  0  0  1  0  0  0  0  0999 V2000
  -11.0540   15.9510   67.3300 C   0  0  0  0  0  0  0  0  0  0  0  0
  -10.5990   16.9770   68.0890 C   0  0  0  0  0  0  0  0  0  0  0  0
  -10.7570   17.0270   69.4730 O   0  0  0  0  0  0  0  0  0  0  0  0
  -11.3790   15.9830   70.1320 C   0  0  0  0  0  0  0  0  0  0  0  0
  -11.8330   14.8980   69.4850 C   0  0  0  0  0  0  0  0  0  0  0  0
  -11.7410   14.7750   67.9980 C   0  0  0  0  0  0  0  0  0  0  0  0
  -12.5290   13.7950   70.2460 C   0  0  0  0  0  0  0  0  0  0  0  0
  -11.7690   12.5990   70.1100 O   0  0  0  0  0  0  0  0  0  0  0  0
  -12.2310   11.4920   70.7450 C   0  0  0  0  0  0  0  0  0  0  0  0
  -11.8310   10.3730   70.4570 O   0  0  0  0  0  0  0  0  0  0  0  0
  -13.1970   11.6860   71.6780 O   0  0  0  0  0  0  0  0  0  0  0  0
  -13.3470   12.9220   72.3710 C   0  0  0  0  0  0  0  0  0  0  0  0
  -12.6670   14.0510   71.7050 C   0  0  0  0  0  0  0  0  0  0  0  0
  -12.1950   15.1770   72.2830 C   0  0  0  0  0  0  0  0  0  0  0  0
  -11.5420   16.1050   71.4880 N   0  0  0  0  0  0  0  0  0  0  0  0
  -14.7300   13.2390   72.4030 O   0  0  0  0  0  0  0  0  0  0  0  0
   -9.7840   18.1150   67.5970 C   0  0  0  0  0  0  0  0  0  0  0  0
  -10.4690   18.9970   66.7600 C   0  0  0  0  0  0  0  0  0  0  0  0
   -9.7170   20.3680   65.9500 S   0  0  0  0  0  0  0  0  0  0  0  0
   -8.2400   20.4030   66.6110 N   0  0  0  0  0  0  0  0  0  0  0  0
   -7.7520   19.4600   67.4030 C   0  0  0  0  0  0  0  0  0  0  0  0
   -8.4060   18.2890   67.8850 C   0  0  0  0  0  0  0  0  0  0  0  0
   -6.4460   19.7070   67.7910 C   0  0  0  0  0  0  0  0  0  0  0  0
   -7.6340   17.3600   68.6330 C   0  0  0  0  0  0  0  0  0  0  0  0
   -6.3030   17.6350   68.9780 C   0  0  0  0  0  0  0  0  0  0  0  0
   -5.7270   18.8380   68.6080 C   0  0  0  0  0  0  0  0  0  0  0  0
   -5.4900   16.6670   69.7280 C   0  0  0  0  0  0  0  0  0  0  0  0
   -4.4810   19.2590   68.9790 O   0  0  0  0  0  0  0  0  0  0  0  0
   -3.9280   18.6280   70.1420 C   0  0  0  0  0  0  0  0  0  0  0  0
   -4.1120   17.1320   70.1600 C   0  0  0  0  0  0  0  0  0  0  0  0
   -3.2540   16.3380   70.5170 O   0  0  0  0  0  0  0  0  0  0  0  0
   -5.8830   15.5390   69.9750 O   0  0  0  0  0  0  0  0  0  0  0  0
   -4.4400   19.2600   71.4010 C   0  0  0  0  0  0  0  0  0  0  0  0
   -5.4520   18.5310   72.1390 O   0  0  0  0  0  0  0  0  0  0  0  0
   -3.4340   19.8870   72.1980 O   0  0  0  0  0  0  0  0  0  0  0  0
   -4.3770   20.6970   71.6770 C   0  0  0  0  0  0  0  0  0  0  0  0
   -5.1710   21.4160   72.2360 O   0  0  0  0  0  0  0  0  0  0  0  0
  -10.8410   15.9020   65.9500 O   0  0  0  0  0  0  0  0  0  0  0  0
  -10.6010   14.6040   65.3570 C   0  0  0  0  0  0  0  0  0  0  0  0
  -10.1860   13.6630   66.3470 O   0  0  0  0  0  0  0  0  0  0  0  0
   -9.9400   12.3950   65.8580 C   0  0  0  0  0  0  0  0  0  0  0  0
   -8.8650   11.6840   66.2220 C   0  0  0  0  0  0  0  0  0  0  0  0
  -10.9040   11.7540   64.9320 C   0  0  0  0  0  0  0  0  0  0  0  0
   -7.8820   12.1740   67.0390 O   0  0  0  0  0  0  0  0  0  0  0  0
  -12.0550   12.6560   64.5670 C   0  0  0  0  0  0  0  0  0  0  0  0
  -10.7800   10.6350   64.4630 O   0  0  0  0  0  0  0  0  0  0  0  0
  -11.8550   14.1560   64.5970 C   0  0  0  0  0  0  0  0  0  0  0  0
  -13.1320   12.1720   64.2540 O   0  0  0  0  0  0  0  0  0  0  0  0
  -12.6010   14.8880   63.9590 O   0  0  0  0  0  0  0  0  0  0  0  0
  -12.3530   15.5190   73.7150 C   0  0  0  0  0  0  0  0  0  0  0  0
  -12.0750   16.8330   74.2200 O   0  0  0  0  0  0  0  0  0  0  0  0
  -13.4310   16.3450   74.1890 O   0  0  0  0  0  0  0  0  0  0  0  0
  1 38  1  0  0  0  0
  1  2  2  0  0  0  0
  1  6  1  0  0  0  0
  2  3  1  0  0  0  0
  2 17  1  0  0  0  0
  3  4  1  0  0  0  0
  4  5  2  0  0  0  0
  4 15  1  0  0  0  0
  5  6  1  0  0  0  0
  5  7  1  0  0  0  0
  7  8  1  0  0  0  0
  7 13  1  0  0  0  0
  8  9  1  0  0  0  0
  9 10  2  0  0  0  0
  9 11  1  0  0  0  0
 11 12  1  0  0  0  0
 12 13  1  0  0  0  0
 12 16  1  0  0  0  0
 13 14  2  0  0  0  0
 14 15  1  0  0  0  0
 14 50  1  0  0  0  0
 17 18  2  0  0  0  0
 17 22  1  0  0  0  0
 18 19  1  0  0  0  0
 19 20  2  0  0  0  0
 20 21  1  0  0  0  0
 21 22  2  0  0  0  0
 21 23  1  0  0  0  0
 22 24  1  0  0  0  0
 23 26  2  0  0  0  0
 24 25  2  0  0  0  0
 25 26  1  0  0  0  0
 25 27  1  0  0  0  0
 26 28  1  0  0  0  0
 27 30  1  0  0  0  0
 27 32  2  0  0  0  0
 28 29  1  0  0  0  0
 29 30  1  0  0  0  0
 29 33  1  0  0  0  0
 30 31  2  0  0  0  0
 33 34  1  0  0  0  0
 33 35  1  0  0  0  0
 33 36  1  0  0  0  0
 35 36  1  0  0  0  0
 36 37  2  0  0  0  0
 38 39  1  0  0  0  0
 39 40  1  0  0  0  0
 39 47  1  0  0  0  0
 40 41  1  0  0  0  0
 41 42  2  0  0  0  0
 41 43  1  0  0  0  0
 42 44  1  0  0  0  0
 43 45  1  0  0  0  0
 43 46  2  0  0  0  0
 45 47  1  0  0  0  0
 45 48  2  0  0  0  0
 47 49  2  0  0  0  0
 50 51  1  0  0  0  0
 50 52  1  0  0  0  0
 51 52  1  0  0  0  0
M  CHG  1  19   1
M  END