
 OpenBabel11232001003D

 54 63  0  0  1  0  0  0  0  0999 V2000
  -10.7740   15.6740   66.8780 C   0  0  0  0  0  0  0  0  0  0  0  0
  -10.5410   16.8120   67.5760 C   0  0  0  0  0  0  0  0  0  0  0  0
  -10.9120   16.9290   68.9250 O   0  0  0  0  0  0  0  0  0  0  0  0
  -11.5730   15.8780   69.5780 C   0  0  0  0  0  0  0  0  0  0  0  0
  -11.8550   14.7250   68.9410 C   0  0  0  0  0  0  0  0  0  0  0  0
  -11.4970   14.5050   67.5020 C   0  0  0  0  0  0  0  0  0  0  0  0
  -12.5430   13.5700   69.6340 C   0  0  0  0  0  0  0  0  0  0  0  0
  -11.6980   12.4400   69.5440 O   0  0  0  0  0  0  0  0  0  0  0  0
  -12.1430   11.3000   70.1480 C   0  0  0  0  0  0  0  0  0  0  0  0
  -11.7710   10.2040   69.7580 O   0  0  0  0  0  0  0  0  0  0  0  0
  -12.9850   11.4550   71.2080 O   0  0  0  0  0  0  0  0  0  0  0  0
  -13.2050   12.6510   71.7660 C   0  0  0  0  0  0  0  0  0  0  0  0
  -13.8670   12.7180   72.8620 N   0  0  0  0  0  0  0  0  0  0  0  0
  -12.7270   13.8380   71.0690 C   0  0  0  0  0  0  0  0  0  0  0  0
  -12.4320   15.0150   71.6620 C   0  0  0  0  0  0  0  0  0  0  0  0
  -11.9200   16.0610   70.9030 O   0  0  0  0  0  0  0  0  0  0  0  0
   -9.9030   18.0400   66.9620 C   0  0  0  0  0  0  0  0  0  0  0  0
  -10.6350   18.8010   66.0390 C   0  0  0  0  0  0  0  0  0  0  0  0
  -10.1630   19.9470   65.5400 N   0  0  0  0  0  0  0  0  0  0  0  0
  -10.9510   20.6870   64.7350 F   0  0  0  0  0  0  0  0  0  0  0  0
   -8.9560   20.3950   65.8180 N   0  0  0  0  0  0  0  0  0  0  0  0
   -8.1750   19.7180   66.6570 C   0  0  0  0  0  0  0  0  0  0  0  0
   -8.6010   18.5260   67.2850 C   0  0  0  0  0  0  0  0  0  0  0  0
   -6.9040   20.2340   66.9390 C   0  0  0  0  0  0  0  0  0  0  0  0
   -7.7040   17.9380   68.2140 C   0  0  0  0  0  0  0  0  0  0  0  0
   -6.4320   18.4800   68.4720 C   0  0  0  0  0  0  0  0  0  0  0  0
   -6.0170   19.6250   67.8270 C   0  0  0  0  0  0  0  0  0  0  0  0
   -5.5520   17.8390   69.4550 C   0  0  0  0  0  0  0  0  0  0  0  0
   -4.8100   20.2300   68.0500 O   0  0  0  0  0  0  0  0  0  0  0  0
   -3.7960   19.4110   68.6840 C   0  0  0  0  0  0  0  0  0  0  0  0
   -4.2420   18.5290   69.7740 C   0  0  0  0  0  0  0  0  0  0  0  0
   -2.8200   18.8600   67.8370 O   0  0  0  0  0  0  0  0  0  0  0  0
   -2.3910   19.9190   68.7560 C   0  0  0  0  0  0  0  0  0  0  0  0
   -3.6310   18.3430   70.8110 O   0  0  0  0  0  0  0  0  0  0  0  0
   -2.4030   21.3160   68.2340 O   0  0  0  0  0  0  0  0  0  0  0  0
   -1.3090   20.6070   68.1250 C   0  0  0  0  0  0  0  0  0  0  0  0
   -0.1480   20.8080   68.3930 O   0  0  0  0  0  0  0  0  0  0  0  0
   -5.8910   16.7870   69.9770 O   0  0  0  0  0  0  0  0  0  0  0  0
   -6.5290   21.3740   66.3380 F   0  0  0  0  0  0  0  0  0  0  0  0
  -10.3930   15.5830   65.5540 O   0  0  0  0  0  0  0  0  0  0  0  0
  -10.2480   14.2970   64.9110 C   0  0  0  0  0  0  0  0  0  0  0  0
   -9.8990   13.3230   65.8710 O   0  0  0  0  0  0  0  0  0  0  0  0
   -9.7750   12.0470   65.3520 C   0  0  0  0  0  0  0  0  0  0  0  0
   -8.8280   11.2270   65.8210 C   0  0  0  0  0  0  0  0  0  0  0  0
  -10.7080   11.5540   64.2970 C   0  0  0  0  0  0  0  0  0  0  0  0
   -7.9240   11.6230   66.7760 O   0  0  0  0  0  0  0  0  0  0  0  0
  -11.7830   12.5560   63.9130 C   0  0  0  0  0  0  0  0  0  0  0  0
  -10.6020   10.4750   63.7430 O   0  0  0  0  0  0  0  0  0  0  0  0
  -11.5990   14.0120   64.2860 C   0  0  0  0  0  0  0  0  0  0  0  0
  -12.7830   12.2140   63.3060 O   0  0  0  0  0  0  0  0  0  0  0  0
  -12.4460   14.8710   64.0650 O   0  0  0  0  0  0  0  0  0  0  0  0
  -12.5280   15.2900   73.1180 C   0  0  0  0  0  0  0  0  0  0  0  0
  -12.1420   16.5670   73.6440 O   0  0  0  0  0  0  0  0  0  0  0  0
  -13.5330   16.2020   73.6040 O   0  0  0  0  0  0  0  0  0  0  0  0
  1 40  1  0  0  0  0
  1  2  2  0  0  0  0
  1  6  1  0  0  0  0
  2  3  1  0  0  0  0
  2 17  1  0  0  0  0
  3  4  1  0  0  0  0
  4  5  2  0  0  0  0
  4 16  1  0  0  0  0
  5  6  1  0  0  0  0
  5  7  1  0  0  0  0
  7  8  1  0  0  0  0
  7 14  1  0  0  0  0
  8  9  1  0  0  0  0
  9 10  2  0  0  0  0
  9 11  1  0  0  0  0
 11 12  1  0  0  0  0
 12 13  2  0  0  0  0
 12 14  1  0  0  0  0
 14 15  2  0  0  0  0
 15 16  1  0  0  0  0
 15 52  1  0  0  0  0
 17 18  2  0  0  0  0
 17 23  1  0  0  0  0
 18 19  1  0  0  0  0
 19 20  1  0  0  0  0
 19 21  2  0  0  0  0
 21 22  1  0  0  0  0
 22 23  2  0  0  0  0
 22 24  1  0  0  0  0
 23 25  1  0  0  0  0
 24 27  2  0  0  0  0
 24 39  1  0  0  0  0
 25 26  2  0  0  0  0
 26 27  1  0  0  0  0
 26 28  1  0  0  0  0
 27 29  1  0  0  0  0
 28 31  1  0  0  0  0
 28 38  2  0  0  0  0
 29 30  1  0  0  0  0
 30 31  1  0  0  0  0
 30 32  1  0  0  0  0
 30 33  1  0  0  0  0
 31 34  2  0  0  0  0
 32 33  1  0  0  0  0
 33 35  1  0  0  0  0
 33 36  1  0  0  0  0
 35 36  1  0  0  0  0
 36 37  2  0  0  0  0
 40 41  1  0  0  0  0
 41 42  1  0  0  0  0
 41 49  1  0  0  0  0
 42 43  1  0  0  0  0
 43 44  2  0  0  0  0
 43 45  1  0  0  0  0
 44 46  1  0  0  0  0
 45 47  1  0  0  0  0
 45 48  2  0  0  0  0
 47 49  1  0  0  0  0
 47 50  2  0  0  0  0
 49 51  2  0  0  0  0
 52 53  1  0  0  0  0
 52 54  1  0  0  0  0
 53 54  1  0  0  0  0
M  CHG  2  16   1  19   1
M  END