
 OpenBabel10252017513D

 98113  0  0  1  0  0  0  0  0999 V2000
   -6.9750   17.4610   67.4950 C   0  0  0  0  0  0  0  0  0  0  0  0
   -8.2210   17.6800   66.8360 C   0  0  0  0  0  0  0  0  0  0  0  0
   -9.3210   16.7770   66.8200 C   0  0  0  0  0  0  0  0  0  0  0  0
  -10.7360   17.3810   66.0000 Cl  0  0  0  0  0  0  0  0  0  0  0  0
   -9.2510   15.5000   67.3500 C   0  0  0  0  0  0  0  0  0  0  0  0
   -8.0040   15.2220   68.0060 C   0  0  0  0  0  0  0  0  0  0  0  0
   -6.9850   16.2120   68.1600 C   0  0  0  0  0  0  0  0  0  0  0  0
   -5.7920   15.7820   69.3640 Cl  0  0  0  0  0  0  0  0  0  0  0  0
   -7.8070   13.9340   68.4200 C   0  0  0  0  0  0  0  0  0  0  0  0
   -8.6790   12.8870   68.1700 C   0  0  0  0  0  0  0  0  0  0  0  0
   -9.9350   13.1320   67.6260 C   0  0  0  0  0  0  0  0  0  0  0  0
  -10.2150   14.4400   67.2870 C   0  0  0  0  0  0  0  0  0  0  0  0
  -11.4510   14.7320   66.7860 F   0  0  0  0  0  0  0  0  0  0  0  0
  -10.8150   12.1030   67.4360 O   0  0  0  0  0  0  0  0  0  0  0  0
  -10.2770   10.7630   67.1440 C   0  0  0  0  0  0  0  0  0  0  0  0
   -8.7090   10.6560   67.1780 C   0  0  0  0  0  0  0  0  0  0  0  0
   -8.2460   11.4970   68.3990 C   0  0  0  0  0  0  0  0  0  0  0  0
   -6.8760   11.5070   68.7670 O   0  0  0  0  0  0  0  0  0  0  0  0
  -10.9800    9.6430   68.0140 C   0  0  0  0  0  0  0  0  0  0  0  0
  -11.3890   10.2150   69.3880 C   0  0  0  0  0  0  0  0  0  0  0  0
  -11.8830    9.1350   70.3500 C   0  0  0  0  0  0  0  0  0  0  0  0
  -10.8280    8.0870   70.5560 C   0  0  0  0  0  0  0  0  0  0  0  0
  -10.0840    7.6560   69.4810 C   0  0  0  0  0  0  0  0  0  0  0  0
  -10.5900    7.4810   71.7870 C   0  0  0  0  0  0  0  0  0  0  0  0
  -10.1260    8.3590   68.1530 C   0  0  0  0  0  0  0  0  0  0  0  0
   -9.2420    6.5260   69.5770 C   0  0  0  0  0  0  0  0  0  0  0  0
  -10.4420    7.2690   67.0910 C   0  0  0  0  0  0  0  0  0  0  0  0
  -11.7290    6.8520   67.2540 F   0  0  0  0  0  0  0  0  0  0  0  0
   -9.5050    6.0470   67.1610 C   0  0  0  0  0  0  0  0  0  0  0  0
   -8.4880    6.1650   68.3090 C   0  0  0  0  0  0  0  0  0  0  0  0
   -7.5750    4.9540   68.4500 C   0  0  0  0  0  0  0  0  0  0  0  0
   -8.2530    3.8820   69.2760 C   0  0  0  0  0  0  0  0  0  0  0  0
   -8.5230    4.3930   70.7030 C   0  0  0  0  0  0  0  0  0  0  0  0
   -9.1660    5.7800   70.7680 C   0  0  0  0  0  0  0  0  0  0  0  0
   -9.5490    3.1510   71.4890 Cl  0  0  0  0  0  0  0  0  0  0  0  0
   -9.7230    6.3620   71.9470 C   0  0  0  0  0  0  0  0  0  0  0  0
   -9.4470    5.8740   73.3300 C   0  0  0  0  0  0  0  0  0  0  0  0
   -8.1890    6.0520   73.9370 C   0  0  0  0  0  0  0  0  0  0  0  0
   -7.8970    5.5430   75.2160 C   0  0  0  0  0  0  0  0  0  0  0  0
   -6.4420    5.3450   75.6210 C   0  0  0  0  0  0  0  0  0  0  0  0
   -8.9330    5.0340   76.0050 C   0  0  0  0  0  0  0  0  0  0  0  0
   -5.9540    4.0700   74.8910 C   0  0  0  0  0  0  0  0  0  0  0  0
   -6.2390    5.2470   77.1500 C   0  0  0  0  0  0  0  0  0  0  0  0
   -4.5470    3.6460   75.2780 C   0  0  0  0  0  0  0  0  0  0  0  0
   -4.3920    3.4930   76.7940 C   0  0  0  0  0  0  0  0  0  0  0  0
   -4.7790    4.8210   77.4900 C   0  0  0  0  0  0  0  0  0  0  0  0
   -2.9690    3.0290   77.1130 C   0  0  0  0  0  0  0  0  0  0  0  0
   -4.5410    4.7880   79.0030 C   0  0  0  0  0  0  0  0  0  0  0  0
   -7.3050    4.3320   77.7900 C   0  0  0  0  0  0  0  0  0  0  0  0
   -8.7370    4.7840   77.4800 C   0  0  0  0  0  0  0  0  0  0  0  0
   -9.1160    6.0520   78.2600 C   0  0  0  0  0  0  0  0  0  0  0  0
  -10.1690    4.7950   75.4100 C   0  0  0  0  0  0  0  0  0  0  0  0
  -10.3750    5.1260   74.0730 C   0  0  0  0  0  0  0  0  0  0  0  0
  -11.4950    4.6580   73.4990 F   0  0  0  0  0  0  0  0  0  0  0  0
   -8.2540   11.1650   65.8890 O   0  0  0  0  0  0  0  0  0  0  0  0
   -7.8650   10.2960   64.9050 C   0  0  0  0  0  0  0  0  0  0  0  0
   -8.7500   10.1450   63.8210 C   0  0  0  0  0  0  0  0  0  0  0  0
  -10.0510   10.5820   63.8920 O   0  0  0  0  0  0  0  0  0  0  0  0
   -8.3830    9.4450   62.6650 C   0  0  0  0  0  0  0  0  0  0  0  0
   -9.2500    9.3070   61.6170 O   0  0  0  0  0  0  0  0  0  0  0  0
   -7.1360    8.8540   62.5790 C   0  0  0  0  0  0  0  0  0  0  0  0
   -6.2800    8.9440   63.6550 C   0  0  0  0  0  0  0  0  0  0  0  0
   -6.7590    8.1130   61.5010 O   0  0  0  0  0  0  0  0  0  0  0  0
   -6.6610    9.6030   64.8230 C   0  0  0  0  0  0  0  0  0  0  0  0
   -5.0420    8.3550   63.6480 O   0  0  0  0  0  0  0  0  0  0  0  0
   -5.8060    9.4210   65.8750 O   0  0  0  0  0  0  0  0  0  0  0  0
   -5.8450   18.5390   67.4420 C   0  0  0  0  0  0  0  0  0  0  0  0
   -5.1780   18.7810   66.1970 C   0  0  0  0  0  0  0  0  0  0  0  0
   -4.2280   19.8620   65.8390 C   0  0  0  0  0  0  0  0  0  0  0  0
   -3.5340   20.3710   64.5180 C   0  0  0  0  0  0  0  0  0  0  0  0
   -3.8020   20.4840   67.0390 N   0  0  0  0  0  0  0  0  0  0  0  0
   -2.3590   21.1520   64.7140 C   0  0  0  0  0  0  0  0  0  0  0  0
   -1.2550   21.2390   63.8350 N   0  0  0  0  0  0  0  0  0  0  0  0
   -2.0900   21.6240   65.9940 C   0  0  0  0  0  0  0  0  0  0  0  0
   -2.8230   21.3610   67.0560 N   0  0  0  0  0  0  0  0  0  0  0  0
   -4.3220   20.2080   68.2630 N   0  0  0  0  0  0  0  0  0  0  0  0
   -5.3270   19.3300   68.4910 C   0  0  0  0  0  0  0  0  0  0  0  0
   -3.6350   21.0000   69.6570 Cl  0  0  0  0  0  0  0  0  0  0  0  0
   -5.7100   19.3120   69.7760 O   0  0  0  0  0  0  0  0  0  0  0  0
   -4.1040   20.1730   62.8910 N   0  0  0  0  0  0  0  0  0  0  0  0
   -4.4700   21.2080   61.9660 N   0  0  0  0  0  0  0  0  0  0  0  0
   -4.8970   20.9640   60.6610 C   0  0  0  0  0  0  0  0  0  0  0  0
   -4.3020   22.8740   62.2390 Cl  0  0  0  0  0  0  0  0  0  0  0  0
   -5.0060   19.7130   60.0410 C   0  0  0  0  0  0  0  0  0  0  0  0
   -5.3920   19.4380   58.6940 N   0  0  0  0  0  0  0  0  0  0  0  0
   -4.6530   18.6750   60.8610 C   0  0  0  0  0  0  0  0  0  0  0  0
   -5.5020   18.1260   58.1730 C   0  0  0  0  0  0  0  0  0  0  0  0
   -5.6470   20.4930   57.8600 N   0  0  0  0  0  0  0  0  0  0  0  0
   -5.9110   17.9980   56.8600 N   0  0  0  0  0  0  0  0  0  0  0  0
   -5.1680   17.1440   59.0770 N   0  0  0  0  0  0  0  0  0  0  0  0
   -6.1520   19.0770   56.0780 C   0  0  0  0  0  0  0  0  0  0  0  0
   -6.1760   16.5000   56.0660 Cl  0  0  0  0  0  0  0  0  0  0  0  0
   -6.0090   20.3170   56.5690 N   0  0  0  0  0  0  0  0  0  0  0  0
   -6.2500   21.5140   55.6880 C   0  0  0  0  0  0  0  0  0  0  0  0
   -4.7500   17.4520   60.3240 N   0  0  0  0  0  0  0  0  0  0  0  0
   -5.1950   15.4610   58.7720 Cl  0  0  0  0  0  0  0  0  0  0  0  0
   -4.1450   18.8960   62.2390 C   0  0  0  0  0  0  0  0  0  0  0  0
   -3.6940   17.7220   62.8190 N   0  0  0  0  0  0  0  0  0  0  0  0
  1 67  1  0  0  0  0
  1  2  2  0  0  0  0
  1  7  1  0  0  0  0
  2  3  1  0  0  0  0
  3  4  1  0  0  0  0
  3  5  2  0  0  0  0
  5  6  1  0  0  0  0
  5 12  1  0  0  0  0
  6  7  2  0  0  0  0
  6  9  1  0  0  0  0
  7  8  1  0  0  0  0
  9 10  2  0  0  0  0
 10 11  1  0  0  0  0
 10 17  1  0  0  0  0
 11 12  2  0  0  0  0
 11 14  1  0  0  0  0
 12 13  1  0  0  0  0
 14 15  1  0  0  0  0
 15 16  1  0  0  0  0
 15 19  1  0  0  0  0
 16 17  1  0  0  0  0
 16 55  1  0  0  0  0
 17 18  1  0  0  0  0
 19 20  1  0  0  0  0
 19 25  1  0  0  0  0
 20 21  1  0  0  0  0
 21 22  1  0  0  0  0
 22 23  2  0  0  0  0
 22 24  1  0  0  0  0
 23 25  1  0  0  0  0
 23 26  1  0  0  0  0
 24 36  2  0  0  0  0
 25 27  1  0  0  0  0
 26 30  1  0  0  0  0
 26 34  2  0  0  0  0
 27 28  1  0  0  0  0
 27 29  1  0  0  0  0
 29 30  1  0  0  0  0
 30 31  1  0  0  0  0
 31 32  1  0  0  0  0
 32 33  1  0  0  0  0
 33 34  1  0  0  0  0
 33 35  1  0  0  0  0
 34 36  1  0  0  0  0
 36 37  1  0  0  0  0
 37 38  2  0  0  0  0
 37 53  1  0  0  0  0
 38 39  1  0  0  0  0
 39 40  1  0  0  0  0
 39 41  2  0  0  0  0
 40 42  1  0  0  0  0
 40 43  1  0  0  0  0
 41 50  1  0  0  0  0
 41 52  1  0  0  0  0
 42 44  1  0  0  0  0
 43 46  1  0  0  0  0
 43 49  1  0  0  0  0
 44 45  1  0  0  0  0
 45 46  1  0  0  0  0
 45 47  1  0  0  0  0
 46 48  1  0  0  0  0
 49 50  1  0  0  0  0
 50 51  1  0  0  0  0
 52 53  2  0  0  0  0
 53 54  1  0  0  0  0
 55 56  1  0  0  0  0
 56 57  2  0  0  0  0
 56 64  1  0  0  0  0
 57 58  1  0  0  0  0
 57 59  1  0  0  0  0
 59 60  1  0  0  0  0
 59 61  2  0  0  0  0
 61 62  1  0  0  0  0
 61 63  1  0  0  0  0
 62 64  2  0  0  0  0
 62 65  1  0  0  0  0
 64 66  1  0  0  0  0
 67 68  2  0  0  0  0
 67 77  1  0  0  0  0
 68 69  1  0  0  0  0
 69 70  1  0  0  0  0
 69 71  2  0  0  0  0
 70 80  1  0  0  0  0
 70 72  2  0  0  0  0
 71 75  1  0  0  0  0
 71 76  1  0  0  0  0
 72 73  1  0  0  0  0
 72 74  1  0  0  0  0
 74 75  2  0  0  0  0
 76 77  2  0  0  0  0
 76 78  1  0  0  0  0
 77 79  1  0  0  0  0
 80 81  2  0  0  0  0
 80 97  1  0  0  0  0
 81 82  1  0  0  0  0
 81 83  1  0  0  0  0
 82 84  2  0  0  0  0
 84 85  1  0  0  0  0
 84 86  1  0  0  0  0
 85 87  1  0  0  0  0
 85 88  2  0  0  0  0
 86 97  2  0  0  0  0
 86 95  1  0  0  0  0
 87 89  2  0  0  0  0
 87 90  1  0  0  0  0
 88 93  1  0  0  0  0
 89 91  1  0  0  0  0
 89 92  1  0  0  0  0
 90 95  2  0  0  0  0
 90 96  1  0  0  0  0
 91 93  2  0  0  0  0
 93 94  1  0  0  0  0
 97 98  1  0  0  0  0
M  CHG  8  93   1  89   1  85   1  81   1  80   1  90   1  71   1  76   1
M  END