
 OpenBabel09252022493D

 47 54  0  0  1  0  0  0  0  0999 V2000
  -10.5810   15.7500   67.4740 C   0  0  0  0  0  0  0  0  0  0  0  0
  -10.4930   16.9020   68.1850 C   0  0  0  0  0  0  0  0  0  0  0  0
  -11.0730   17.0530   69.4520 O   0  0  0  0  0  0  0  0  0  0  0  0
  -11.6580   15.9600   70.0780 C   0  0  0  0  0  0  0  0  0  0  0  0
  -11.7000   14.7600   69.4830 C   0  0  0  0  0  0  0  0  0  0  0  0
  -11.2160   14.5260   68.1000 C   0  0  0  0  0  0  0  0  0  0  0  0
  -12.2490   13.6080   70.2460 C   0  0  0  0  0  0  0  0  0  0  0  0
  -12.3090   12.4290   69.7140 N   0  0  0  0  0  0  0  0  0  0  0  0
  -12.7940   11.3730   70.4560 C   0  0  0  0  0  0  0  0  0  0  0  0
  -12.8720   10.2680   69.9050 O   0  0  0  0  0  0  0  0  0  0  0  0
  -13.1920   11.4820   71.7640 N   0  0  0  0  0  0  0  0  0  0  0  0
  -13.1680   12.6420   72.3260 C   0  0  0  0  0  0  0  0  0  0  0  0
  -12.7010   13.8550   71.6280 C   0  0  0  0  0  0  0  0  0  0  0  0
  -12.6640   15.1160   72.1240 C   0  0  0  0  0  0  0  0  0  0  0  0
  -12.1710   16.1440   71.3380 N   0  0  0  0  0  0  0  0  0  0  0  0
   -9.8170   18.1420   67.7310 C   0  0  0  0  0  0  0  0  0  0  0  0
  -10.6470   19.0440   67.1640 N   0  0  0  0  0  0  0  0  0  0  0  0
  -10.1050   20.2270   66.8530 C   0  0  0  0  0  0  0  0  0  0  0  0
   -8.8480   20.6130   67.1060 N   0  0  0  0  0  0  0  0  0  0  0  0
   -8.0370   19.7160   67.6640 C   0  0  0  0  0  0  0  0  0  0  0  0
   -8.4540   18.4130   67.9950 C   0  0  0  0  0  0  0  0  0  0  0  0
   -6.7230   20.1030   67.9110 C   0  0  0  0  0  0  0  0  0  0  0  0
   -7.5000   17.5120   68.5440 C   0  0  0  0  0  0  0  0  0  0  0  0
   -6.1730   17.9150   68.7380 C   0  0  0  0  0  0  0  0  0  0  0  0
   -5.7930   19.2090   68.4360 C   0  0  0  0  0  0  0  0  0  0  0  0
   -5.1540   16.9830   69.2190 C   0  0  0  0  0  0  0  0  0  0  0  0
   -4.4670   19.6770   68.5590 O   0  0  0  0  0  0  0  0  0  0  0  0
   -3.4120   18.9260   69.0380 C   0  0  0  0  0  0  0  0  0  0  0  0
   -2.2510   19.2960   69.0120 O   0  0  0  0  0  0  0  0  0  0  0  0
   -3.8420   17.5970   69.6350 C   0  0  0  0  0  0  0  0  0  0  0  0
   -3.1620   17.0540   70.4930 O   0  0  0  0  0  0  0  0  0  0  0  0
   -5.3520   15.7800   69.2710 O   0  0  0  0  0  0  0  0  0  0  0  0
  -10.0580   15.6310   66.1890 O   0  0  0  0  0  0  0  0  0  0  0  0
   -9.9220   14.2870   65.6750 C   0  0  0  0  0  0  0  0  0  0  0  0
  -11.1980   13.6610   65.5530 O   0  0  0  0  0  0  0  0  0  0  0  0
  -11.1270   12.3970   64.9960 C   0  0  0  0  0  0  0  0  0  0  0  0
  -11.8920   12.0320   63.9590 C   0  0  0  0  0  0  0  0  0  0  0  0
  -10.1810   11.4010   65.5580 C   0  0  0  0  0  0  0  0  0  0  0  0
  -12.7590   12.8950   63.3440 O   0  0  0  0  0  0  0  0  0  0  0  0
   -9.1660   12.0010   66.5070 C   0  0  0  0  0  0  0  0  0  0  0  0
  -10.1720   10.2180   65.2620 O   0  0  0  0  0  0  0  0  0  0  0  0
   -8.9700   13.5010   66.5670 C   0  0  0  0  0  0  0  0  0  0  0  0
   -8.4740   11.2660   67.1970 O   0  0  0  0  0  0  0  0  0  0  0  0
   -8.0390   13.9810   67.2000 O   0  0  0  0  0  0  0  0  0  0  0  0
  -13.1190   15.4880   73.4870 C   0  0  0  0  0  0  0  0  0  0  0  0
  -12.2600   15.3420   74.6290 O   0  0  0  0  0  0  0  0  0  0  0  0
  -12.6150   16.6570   74.1590 O   0  0  0  0  0  0  0  0  0  0  0  0
  1 33  1  0  0  0  0
  1  2  2  0  0  0  0
  1  6  1  0  0  0  0
  2  3  1  0  0  0  0
  2 16  1  0  0  0  0
  3  4  1  0  0  0  0
  4  5  2  0  0  0  0
  4 15  1  0  0  0  0
  5  6  1  0  0  0  0
  5  7  1  0  0  0  0
  7  8  2  0  0  0  0
  7 13  1  0  0  0  0
  8  9  1  0  0  0  0
  9 10  2  0  0  0  0
  9 11  1  0  0  0  0
 11 12  2  0  0  0  0
 12 13  1  0  0  0  0
 13 14  2  0  0  0  0
 14 15  1  0  0  0  0
 14 45  1  0  0  0  0
 16 17  2  0  0  0  0
 16 21  1  0  0  0  0
 17 18  1  0  0  0  0
 18 19  2  0  0  0  0
 19 20  1  0  0  0  0
 20 21  2  0  0  0  0
 20 22  1  0  0  0  0
 21 23  1  0  0  0  0
 22 25  2  0  0  0  0
 23 24  2  0  0  0  0
 24 25  1  0  0  0  0
 24 26  1  0  0  0  0
 25 27  1  0  0  0  0
 26 30  1  0  0  0  0
 26 32  2  0  0  0  0
 27 28  1  0  0  0  0
 28 29  2  0  0  0  0
 28 30  1  0  0  0  0
 30 31  2  0  0  0  0
 33 34  1  0  0  0  0
 34 35  1  0  0  0  0
 34 42  1  0  0  0  0
 35 36  1  0  0  0  0
 36 37  2  0  0  0  0
 36 38  1  0  0  0  0
 37 39  1  0  0  0  0
 38 40  1  0  0  0  0
 38 41  2  0  0  0  0
 40 42  1  0  0  0  0
 40 43  2  0  0  0  0
 42 44  2  0  0  0  0
 45 46  1  0  0  0  0
 45 47  1  0  0  0  0
 46 47  1  0  0  0  0
M  END
