
 OpenBabel11232001233D

 52 61  0  0  1  0  0  0  0  0999 V2000
  -10.9410   15.6560   66.9260 C   0  0  0  0  0  0  0  0  0  0  0  0
  -10.5280   16.7560   67.5970 C   0  0  0  0  0  0  0  0  0  0  0  0
  -10.8360   16.9680   68.9400 O   0  0  0  0  0  0  0  0  0  0  0  0
  -11.4930   15.9990   69.6730 C   0  0  0  0  0  0  0  0  0  0  0  0
  -11.9200   14.8530   69.1120 C   0  0  0  0  0  0  0  0  0  0  0  0
  -11.7640   14.5950   67.6300 C   0  0  0  0  0  0  0  0  0  0  0  0
  -12.5530   13.7670   69.9440 C   0  0  0  0  0  0  0  0  0  0  0  0
  -11.7300   12.6140   69.8490 O   0  0  0  0  0  0  0  0  0  0  0  0
  -12.1730   11.5170   70.5260 C   0  0  0  0  0  0  0  0  0  0  0  0
  -11.7500   10.3970   70.2960 O   0  0  0  0  0  0  0  0  0  0  0  0
  -13.1490   11.7750   71.4340 O   0  0  0  0  0  0  0  0  0  0  0  0
  -13.0060   12.9500   72.2140 C   0  0  0  0  0  0  0  0  0  0  0  0
  -12.5750   14.1150   71.3900 C   0  0  0  0  0  0  0  0  0  0  0  0
  -12.1750   15.3140   71.8690 C   0  0  0  0  0  0  0  0  0  0  0  0
  -11.6740   16.2700   71.0070 O   0  0  0  0  0  0  0  0  0  0  0  0
  -14.2670   13.3080   72.7420 O   0  0  0  0  0  0  0  0  0  0  0  0
   -9.7780   17.9030   67.0210 C   0  0  0  0  0  0  0  0  0  0  0  0
  -10.4350   18.6780   66.0740 C   0  0  0  0  0  0  0  0  0  0  0  0
   -9.9050   19.7770   65.5150 N   0  0  0  0  0  0  0  0  0  0  0  0
   -8.6430   20.1520   65.8560 N   0  0  0  0  0  0  0  0  0  0  0  0
   -7.9290   19.4490   66.7430 C   0  0  0  0  0  0  0  0  0  0  0  0
   -8.4720   18.3130   67.3860 C   0  0  0  0  0  0  0  0  0  0  0  0
   -6.6350   19.8680   67.0430 C   0  0  0  0  0  0  0  0  0  0  0  0
   -7.6800   17.6560   68.3500 C   0  0  0  0  0  0  0  0  0  0  0  0
   -6.3680   18.0540   68.5930 C   0  0  0  0  0  0  0  0  0  0  0  0
   -5.8500   19.1770   67.9630 C   0  0  0  0  0  0  0  0  0  0  0  0
   -5.5290   17.2710   69.5170 C   0  0  0  0  0  0  0  0  0  0  0  0
   -4.5900   19.6650   68.2190 O   0  0  0  0  0  0  0  0  0  0  0  0
   -4.0640   19.2260   69.4950 C   0  0  0  0  0  0  0  0  0  0  0  0
   -4.1150   17.7800   69.7420 C   0  0  0  0  0  0  0  0  0  0  0  0
   -2.9910   19.9600   70.0330 O   0  0  0  0  0  0  0  0  0  0  0  0
   -4.2780   20.0780   70.7110 C   0  0  0  0  0  0  0  0  0  0  0  0
   -3.2000   17.0940   70.1530 O   0  0  0  0  0  0  0  0  0  0  0  0
   -5.1940   21.1620   70.3030 O   0  0  0  0  0  0  0  0  0  0  0  0
   -4.3340   21.4030   71.2690 C   0  0  0  0  0  0  0  0  0  0  0  0
   -4.5080   21.8120   72.3960 O   0  0  0  0  0  0  0  0  0  0  0  0
   -5.9800   16.3070   70.1170 O   0  0  0  0  0  0  0  0  0  0  0  0
  -10.6860   15.5200   65.5660 O   0  0  0  0  0  0  0  0  0  0  0  0
  -10.4830   14.2060   65.0210 C   0  0  0  0  0  0  0  0  0  0  0  0
   -9.9080   13.3460   66.0020 O   0  0  0  0  0  0  0  0  0  0  0  0
   -9.7310   12.0270   65.6180 C   0  0  0  0  0  0  0  0  0  0  0  0
   -8.9780   11.1930   66.3470 C   0  0  0  0  0  0  0  0  0  0  0  0
  -10.4170   11.4430   64.4260 C   0  0  0  0  0  0  0  0  0  0  0  0
   -8.3450   11.5770   67.5020 O   0  0  0  0  0  0  0  0  0  0  0  0
  -11.6090   12.2510   63.9470 C   0  0  0  0  0  0  0  0  0  0  0  0
  -10.0530   10.4250   63.8630 O   0  0  0  0  0  0  0  0  0  0  0  0
  -11.8050   13.6290   64.5320 C   0  0  0  0  0  0  0  0  0  0  0  0
  -12.3580   11.8250   63.0880 O   0  0  0  0  0  0  0  0  0  0  0  0
  -12.8980   14.1730   64.5600 O   0  0  0  0  0  0  0  0  0  0  0  0
  -12.1880   15.6800   73.3040 C   0  0  0  0  0  0  0  0  0  0  0  0
  -11.9740   17.0350   73.7240 O   0  0  0  0  0  0  0  0  0  0  0  0
  -13.2810   16.4420   73.8510 O   0  0  0  0  0  0  0  0  0  0  0  0
  1 38  1  0  0  0  0
  1  2  2  0  0  0  0
  1  6  1  0  0  0  0
  2  3  1  0  0  0  0
  2 17  1  0  0  0  0
  3  4  1  0  0  0  0
  4  5  2  0  0  0  0
  4 15  1  0  0  0  0
  5  6  1  0  0  0  0
  5  7  1  0  0  0  0
  7  8  1  0  0  0  0
  7 13  1  0  0  0  0
  8  9  1  0  0  0  0
  9 10  2  0  0  0  0
  9 11  1  0  0  0  0
 11 12  1  0  0  0  0
 12 13  1  0  0  0  0
 12 16  1  0  0  0  0
 13 14  2  0  0  0  0
 14 15  1  0  0  0  0
 14 50  1  0  0  0  0
 17 18  2  0  0  0  0
 17 22  1  0  0  0  0
 18 19  1  0  0  0  0
 19 20  2  0  0  0  0
 20 21  1  0  0  0  0
 21 22  2  0  0  0  0
 21 23  1  0  0  0  0
 22 24  1  0  0  0  0
 23 26  2  0  0  0  0
 24 25  2  0  0  0  0
 25 26  1  0  0  0  0
 25 27  1  0  0  0  0
 26 28  1  0  0  0  0
 27 30  1  0  0  0  0
 27 37  2  0  0  0  0
 28 29  1  0  0  0  0
 29 30  1  0  0  0  0
 29 31  1  0  0  0  0
 29 32  1  0  0  0  0
 30 33  2  0  0  0  0
 31 32  1  0  0  0  0
 32 34  1  0  0  0  0
 32 35  1  0  0  0  0
 34 35  1  0  0  0  0
 35 36  2  0  0  0  0
 38 39  1  0  0  0  0
 39 40  1  0  0  0  0
 39 47  1  0  0  0  0
 40 41  1  0  0  0  0
 41 42  2  0  0  0  0
 41 43  1  0  0  0  0
 42 44  1  0  0  0  0
 43 45  1  0  0  0  0
 43 46  2  0  0  0  0
 45 47  1  0  0  0  0
 45 48  2  0  0  0  0
 47 49  2  0  0  0  0
 50 51  1  0  0  0  0
 50 52  1  0  0  0  0
 51 52  1  0  0  0  0
M  CHG  1  15   1
M  END