
 OpenBabel11272001223D

 54 62  0  0  1  0  0  0  0  0999 V2000
  -11.0320   15.7430   67.3390 C   0  0  0  0  0  0  0  0  0  0  0  0
  -10.5280   16.7790   68.0450 C   0  0  0  0  0  0  0  0  0  0  0  0
  -10.5600   16.8420   69.4380 O   0  0  0  0  0  0  0  0  0  0  0  0
  -11.2600   15.8740   70.1400 C   0  0  0  0  0  0  0  0  0  0  0  0
  -11.7850   14.7990   69.5340 C   0  0  0  0  0  0  0  0  0  0  0  0
  -11.6330   14.5680   68.0730 C   0  0  0  0  0  0  0  0  0  0  0  0
  -12.6360   13.8190   70.2970 C   0  0  0  0  0  0  0  0  0  0  0  0
  -12.0580   12.5240   70.1220 O   0  0  0  0  0  0  0  0  0  0  0  0
  -12.5000   11.5100   70.8830 C   0  0  0  0  0  0  0  0  0  0  0  0
  -12.1790   10.3080   70.5720 N   0  0  0  0  0  0  0  0  0  0  0  0
  -13.2480   11.7610   71.9700 O   0  0  0  0  0  0  0  0  0  0  0  0
  -13.5660   13.0770   72.4150 C   0  0  0  0  0  0  0  0  0  0  0  0
  -12.7430   14.1100   71.7500 C   0  0  0  0  0  0  0  0  0  0  0  0
  -12.1550   15.1960   72.3050 C   0  0  0  0  0  0  0  0  0  0  0  0
  -11.4180   16.0460   71.4920 N   0  0  0  0  0  0  0  0  0  0  0  0
  -14.9260   13.3400   72.1100 O   0  0  0  0  0  0  0  0  0  0  0  0
   -9.8970   17.9540   67.4220 C   0  0  0  0  0  0  0  0  0  0  0  0
  -10.6930   18.6080   66.5400 N   0  0  0  0  0  0  0  0  0  0  0  0
  -10.1880   19.7070   65.9550 C   0  0  0  0  0  0  0  0  0  0  0  0
  -10.9660   20.3570   65.0790 F   0  0  0  0  0  0  0  0  0  0  0  0
   -8.9260   20.2060   66.2050 C   0  0  0  0  0  0  0  0  0  0  0  0
   -8.1060   19.5380   67.1200 C   0  0  0  0  0  0  0  0  0  0  0  0
   -8.5860   18.3750   67.7580 C   0  0  0  0  0  0  0  0  0  0  0  0
   -6.8100   20.0030   67.4110 C   0  0  0  0  0  0  0  0  0  0  0  0
   -7.7270   17.7210   68.6750 C   0  0  0  0  0  0  0  0  0  0  0  0
   -6.4320   18.2010   68.9330 C   0  0  0  0  0  0  0  0  0  0  0  0
   -5.5500   17.4570   69.8350 C   0  0  0  0  0  0  0  0  0  0  0  0
   -5.9670   19.3480   68.3140 C   0  0  0  0  0  0  0  0  0  0  0  0
   -5.9290   16.4660   70.4370 O   0  0  0  0  0  0  0  0  0  0  0  0
   -4.1400   17.9700   70.0030 C   0  0  0  0  0  0  0  0  0  0  0  0
   -3.2910   17.3020   70.5780 O   0  0  0  0  0  0  0  0  0  0  0  0
   -3.9200   19.3950   69.5620 C   0  0  0  0  0  0  0  0  0  0  0  0
   -4.7240   19.8760   68.4850 O   0  0  0  0  0  0  0  0  0  0  0  0
   -6.3630   21.1120   66.7970 F   0  0  0  0  0  0  0  0  0  0  0  0
   -3.9640   20.3570   70.7160 C   0  0  0  0  0  0  0  0  0  0  0  0
   -4.8590   21.4860   70.5660 O   0  0  0  0  0  0  0  0  0  0  0  0
   -3.9180   19.7610   72.0090 O   0  0  0  0  0  0  0  0  0  0  0  0
   -2.8810   20.5580   71.6760 C   0  0  0  0  0  0  0  0  0  0  0  0
   -2.4880   21.5740   72.2120 O   0  0  0  0  0  0  0  0  0  0  0  0
  -10.9900   15.7190   65.9440 O   0  0  0  0  0  0  0  0  0  0  0  0
  -10.6470   14.4560   65.3700 C   0  0  0  0  0  0  0  0  0  0  0  0
  -10.5090   13.4420   66.3710 O   0  0  0  0  0  0  0  0  0  0  0  0
   -9.8990   12.3070   65.8790 C   0  0  0  0  0  0  0  0  0  0  0  0
   -9.0780   11.5820   66.6390 C   0  0  0  0  0  0  0  0  0  0  0  0
  -10.1610   11.8820   64.4740 C   0  0  0  0  0  0  0  0  0  0  0  0
   -8.7920   11.9370   67.9060 F   0  0  0  0  0  0  0  0  0  0  0  0
  -11.3150   12.5690   63.7740 C   0  0  0  0  0  0  0  0  0  0  0  0
   -9.4700   11.0210   63.9330 O   0  0  0  0  0  0  0  0  0  0  0  0
  -11.6630   13.9290   64.3540 C   0  0  0  0  0  0  0  0  0  0  0  0
  -12.4070   11.7490   63.7310 F   0  0  0  0  0  0  0  0  0  0  0  0
  -12.6300   14.5810   63.9620 O   0  0  0  0  0  0  0  0  0  0  0  0
  -12.2520   15.5670   73.7330 C   0  0  0  0  0  0  0  0  0  0  0  0
  -12.0810   16.9240   74.1800 O   0  0  0  0  0  0  0  0  0  0  0  0
  -13.3750   16.2950   74.2540 O   0  0  0  0  0  0  0  0  0  0  0  0
  1 40  1  0  0  0  0
  1  2  2  0  0  0  0
  1  6  1  0  0  0  0
  2  3  1  0  0  0  0
  2 17  1  0  0  0  0
  3  4  1  0  0  0  0
  4  5  2  0  0  0  0
  4 15  1  0  0  0  0
  5  6  1  0  0  0  0
  5  7  1  0  0  0  0
  7  8  1  0  0  0  0
  7 13  1  0  0  0  0
  8  9  1  0  0  0  0
  9 10  2  0  0  0  0
  9 11  1  0  0  0  0
 11 12  1  0  0  0  0
 12 13  1  0  0  0  0
 12 16  1  0  0  0  0
 13 14  2  0  0  0  0
 14 15  1  0  0  0  0
 14 52  1  0  0  0  0
 17 18  2  0  0  0  0
 17 23  1  0  0  0  0
 18 19  1  0  0  0  0
 19 20  1  0  0  0  0
 19 21  2  0  0  0  0
 21 22  1  0  0  0  0
 22 23  2  0  0  0  0
 22 24  1  0  0  0  0
 23 25  1  0  0  0  0
 24 28  2  0  0  0  0
 24 34  1  0  0  0  0
 25 26  2  0  0  0  0
 26 27  1  0  0  0  0
 26 28  1  0  0  0  0
 27 29  2  0  0  0  0
 27 30  1  0  0  0  0
 28 33  1  0  0  0  0
 30 31  2  0  0  0  0
 30 32  1  0  0  0  0
 32 33  1  0  0  0  0
 32 35  1  0  0  0  0
 35 36  1  0  0  0  0
 35 37  1  0  0  0  0
 35 38  1  0  0  0  0
 37 38  1  0  0  0  0
 38 39  2  0  0  0  0
 40 41  1  0  0  0  0
 41 42  1  0  0  0  0
 41 49  1  0  0  0  0
 42 43  1  0  0  0  0
 43 44  2  0  0  0  0
 43 45  1  0  0  0  0
 44 46  1  0  0  0  0
 45 47  1  0  0  0  0
 45 48  2  0  0  0  0
 47 49  1  0  0  0  0
 47 50  1  0  0  0  0
 49 51  2  0  0  0  0
 52 53  1  0  0  0  0
 52 54  1  0  0  0  0
 53 54  1  0  0  0  0
M  END
