
 OpenBabel11172005183D

 52 60  0  0  1  0  0  0  0  0999 V2000
   -9.9420   16.0370   67.5930 C   0  0  0  0  0  0  0  0  0  0  0  0
  -10.0590   17.1740   68.3130 C   0  0  0  0  0  0  0  0  0  0  0  0
  -10.7670   17.2340   69.5180 O   0  0  0  0  0  0  0  0  0  0  0  0
  -11.3110   16.0680   70.0560 C   0  0  0  0  0  0  0  0  0  0  0  0
  -11.2390   14.8840   69.4190 C   0  0  0  0  0  0  0  0  0  0  0  0
  -10.5900   14.7690   68.0840 C   0  0  0  0  0  0  0  0  0  0  0  0
  -11.8520   13.7020   70.0560 C   0  0  0  0  0  0  0  0  0  0  0  0
  -11.7510   12.4840   69.4870 C   0  0  0  0  0  0  0  0  0  0  0  0
  -12.3290   11.2740   70.0990 C   0  0  0  0  0  0  0  0  0  0  0  0
  -12.1680   10.1740   69.5850 O   0  0  0  0  0  0  0  0  0  0  0  0
  -13.1170   11.4330   71.3320 C   0  0  0  0  0  0  0  0  0  0  0  0
  -13.2440   12.6340   71.9100 C   0  0  0  0  0  0  0  0  0  0  0  0
  -12.5870   13.8300   71.3520 C   0  0  0  0  0  0  0  0  0  0  0  0
  -12.5790   15.0760   71.9220 C   0  0  0  0  0  0  0  0  0  0  0  0
  -11.9400   16.1480   71.2780 N   0  0  0  0  0  0  0  0  0  0  0  0
  -14.0150   12.7990   73.0400 O   0  0  0  0  0  0  0  0  0  0  0  0
   -9.4150   18.4480   67.9270 C   0  0  0  0  0  0  0  0  0  0  0  0
  -10.1510   19.3450   67.1680 C   0  0  0  0  0  0  0  0  0  0  0  0
   -9.6700   20.5400   66.7740 N   0  0  0  0  0  0  0  0  0  0  0  0
   -8.4030   20.9030   67.1320 N   0  0  0  0  0  0  0  0  0  0  0  0
   -7.6280   20.0850   67.8550 C   0  0  0  0  0  0  0  0  0  0  0  0
   -8.0930   18.8220   68.2830 C   0  0  0  0  0  0  0  0  0  0  0  0
   -6.3310   20.4910   68.1790 C   0  0  0  0  0  0  0  0  0  0  0  0
   -7.2080   18.0120   69.0310 C   0  0  0  0  0  0  0  0  0  0  0  0
   -5.9080   18.4480   69.3360 C   0  0  0  0  0  0  0  0  0  0  0  0
   -5.4570   19.6850   68.9110 C   0  0  0  0  0  0  0  0  0  0  0  0
   -5.0120   17.5900   70.1070 C   0  0  0  0  0  0  0  0  0  0  0  0
   -4.2170   20.2020   69.1450 O   0  0  0  0  0  0  0  0  0  0  0  0
   -3.2610   19.4250   69.8710 C   0  0  0  0  0  0  0  0  0  0  0  0
   -3.5540   17.9610   70.1120 C   0  0  0  0  0  0  0  0  0  0  0  0
   -2.7030   17.1090   70.3280 O   0  0  0  0  0  0  0  0  0  0  0  0
   -5.4160   16.6080   70.7080 O   0  0  0  0  0  0  0  0  0  0  0  0
   -2.9310   20.1200   71.1660 C   0  0  0  0  0  0  0  0  0  0  0  0
   -3.9580   20.1230   72.1800 O   0  0  0  0  0  0  0  0  0  0  0  0
   -1.6090   19.9100   71.6790 O   0  0  0  0  0  0  0  0  0  0  0  0
   -1.8970   21.1400   71.2360 C   0  0  0  0  0  0  0  0  0  0  0  0
   -1.3420   21.8250   70.3910 O   0  0  0  0  0  0  0  0  0  0  0  0
   -9.1810   15.9720   66.4240 O   0  0  0  0  0  0  0  0  0  0  0  0
   -9.7000   15.1070   65.3960 C   0  0  0  0  0  0  0  0  0  0  0  0
   -9.9770   13.8160   65.9380 O   0  0  0  0  0  0  0  0  0  0  0  0
  -10.3800   12.8970   64.9910 C   0  0  0  0  0  0  0  0  0  0  0  0
   -9.8660   11.6630   64.9550 C   0  0  0  0  0  0  0  0  0  0  0  0
  -11.4450   13.2740   64.0280 C   0  0  0  0  0  0  0  0  0  0  0  0
   -8.8570   11.2610   65.7920 O   0  0  0  0  0  0  0  0  0  0  0  0
  -11.9210   14.6980   64.2340 C   0  0  0  0  0  0  0  0  0  0  0  0
  -11.8690   12.5610   63.1390 O   0  0  0  0  0  0  0  0  0  0  0  0
  -10.9330   15.7270   64.7400 C   0  0  0  0  0  0  0  0  0  0  0  0
  -13.0860   14.9940   64.0260 O   0  0  0  0  0  0  0  0  0  0  0  0
  -11.0980   16.9180   64.5130 O   0  0  0  0  0  0  0  0  0  0  0  0
  -13.1910   15.4300   73.2330 C   0  0  0  0  0  0  0  0  0  0  0  0
  -12.4690   15.2830   74.4730 O   0  0  0  0  0  0  0  0  0  0  0  0
  -12.7920   16.5950   73.9730 O   0  0  0  0  0  0  0  0  0  0  0  0
  1 38  1  0  0  0  0
  1  2  2  0  0  0  0
  1  6  1  0  0  0  0
  2  3  1  0  0  0  0
  2 17  1  0  0  0  0
  3  4  1  0  0  0  0
  4  5  2  0  0  0  0
  4 15  1  0  0  0  0
  5  6  1  0  0  0  0
  5  7  1  0  0  0  0
  7  8  2  0  0  0  0
  7 13  1  0  0  0  0
  8  9  1  0  0  0  0
  9 10  2  0  0  0  0
  9 11  1  0  0  0  0
 11 12  2  0  0  0  0
 12 13  1  0  0  0  0
 12 16  1  0  0  0  0
 13 14  2  0  0  0  0
 14 15  1  0  0  0  0
 14 50  1  0  0  0  0
 17 18  2  0  0  0  0
 17 22  1  0  0  0  0
 18 19  1  0  0  0  0
 19 20  2  0  0  0  0
 20 21  1  0  0  0  0
 21 22  2  0  0  0  0
 21 23  1  0  0  0  0
 22 24  1  0  0  0  0
 23 26  2  0  0  0  0
 24 25  2  0  0  0  0
 25 26  1  0  0  0  0
 25 27  1  0  0  0  0
 26 28  1  0  0  0  0
 27 30  1  0  0  0  0
 27 32  2  0  0  0  0
 28 29  1  0  0  0  0
 29 30  1  0  0  0  0
 29 33  1  0  0  0  0
 30 31  2  0  0  0  0
 33 34  1  0  0  0  0
 33 35  1  0  0  0  0
 33 36  1  0  0  0  0
 35 36  1  0  0  0  0
 36 37  2  0  0  0  0
 38 39  1  0  0  0  0
 39 40  1  0  0  0  0
 39 47  1  0  0  0  0
 40 41  1  0  0  0  0
 41 42  2  0  0  0  0
 41 43  1  0  0  0  0
 42 44  1  0  0  0  0
 43 45  1  0  0  0  0
 43 46  2  0  0  0  0
 45 47  1  0  0  0  0
 45 48  2  0  0  0  0
 47 49  2  0  0  0  0
 50 51  1  0  0  0  0
 50 52  1  0  0  0  0
 51 52  1  0  0  0  0
M  END
