
 OpenBabel11272002573D

 54 62  0  0  1  0  0  0  0  0999 V2000
  -11.0930   15.6830   67.4300 C   0  0  0  0  0  0  0  0  0  0  0  0
  -10.5130   16.7090   68.1130 C   0  0  0  0  0  0  0  0  0  0  0  0
  -10.6080   16.7910   69.5170 O   0  0  0  0  0  0  0  0  0  0  0  0
  -11.3580   15.8570   70.2420 C   0  0  0  0  0  0  0  0  0  0  0  0
  -11.8880   14.7840   69.6380 C   0  0  0  0  0  0  0  0  0  0  0  0
  -11.7710   14.5600   68.1740 C   0  0  0  0  0  0  0  0  0  0  0  0
  -12.6620   13.7290   70.3750 C   0  0  0  0  0  0  0  0  0  0  0  0
  -11.9100   12.5330   70.2940 O   0  0  0  0  0  0  0  0  0  0  0  0
  -12.3840   11.4430   70.9560 C   0  0  0  0  0  0  0  0  0  0  0  0
  -11.9720   10.3230   70.7030 O   0  0  0  0  0  0  0  0  0  0  0  0
  -13.3210   11.6830   71.9040 O   0  0  0  0  0  0  0  0  0  0  0  0
  -13.5690   12.9660   72.4710 C   0  0  0  0  0  0  0  0  0  0  0  0
  -12.7920   14.0490   71.8100 C   0  0  0  0  0  0  0  0  0  0  0  0
  -12.2630   15.1600   72.3670 C   0  0  0  0  0  0  0  0  0  0  0  0
  -11.5270   16.0550   71.5970 O   0  0  0  0  0  0  0  0  0  0  0  0
  -14.9220   13.3100   72.2500 O   0  0  0  0  0  0  0  0  0  0  0  0
   -9.6500   17.7790   67.4720 C   0  0  0  0  0  0  0  0  0  0  0  0
  -10.3230   18.6050   66.6400 N   0  0  0  0  0  0  0  0  0  0  0  0
   -9.6780   19.5640   65.9890 N   0  0  0  0  0  0  0  0  0  0  0  0
  -10.3830   20.3690   65.1700 F   0  0  0  0  0  0  0  0  0  0  0  0
   -8.3590   19.7490   66.0950 C   0  0  0  0  0  0  0  0  0  0  0  0
   -7.5950   18.9320   66.9160 C   0  0  0  0  0  0  0  0  0  0  0  0
   -8.2400   17.9050   67.6350 C   0  0  0  0  0  0  0  0  0  0  0  0
   -6.2040   19.1450   67.0370 C   0  0  0  0  0  0  0  0  0  0  0  0
   -7.4030   17.1150   68.4600 C   0  0  0  0  0  0  0  0  0  0  0  0
   -6.0200   17.3580   68.5810 C   0  0  0  0  0  0  0  0  0  0  0  0
   -5.2300   16.5330   69.4930 C   0  0  0  0  0  0  0  0  0  0  0  0
   -5.4080   18.3800   67.8870 C   0  0  0  0  0  0  0  0  0  0  0  0
   -5.7290   15.5330   69.9900 O   0  0  0  0  0  0  0  0  0  0  0  0
   -3.8320   17.0010   69.8230 C   0  0  0  0  0  0  0  0  0  0  0  0
   -3.1560   16.3720   70.6260 O   0  0  0  0  0  0  0  0  0  0  0  0
   -3.4480   18.3530   69.2580 C   0  0  0  0  0  0  0  0  0  0  0  0
   -4.0880   18.7010   68.0150 O   0  0  0  0  0  0  0  0  0  0  0  0
   -5.6460   20.1460   66.3380 F   0  0  0  0  0  0  0  0  0  0  0  0
   -3.5890   19.4230   70.3220 C   0  0  0  0  0  0  0  0  0  0  0  0
   -4.8340   19.4590   71.0520 O   0  0  0  0  0  0  0  0  0  0  0  0
   -2.4110   19.6390   71.1200 O   0  0  0  0  0  0  0  0  0  0  0  0
   -2.8130   20.6500   70.3440 C   0  0  0  0  0  0  0  0  0  0  0  0
   -2.2570   21.2620   69.4420 O   0  0  0  0  0  0  0  0  0  0  0  0
  -11.0640   15.6060   66.0400 O   0  0  0  0  0  0  0  0  0  0  0  0
  -10.7460   14.3360   65.4140 C   0  0  0  0  0  0  0  0  0  0  0  0
  -10.1020   13.4480   66.3290 O   0  0  0  0  0  0  0  0  0  0  0  0
   -9.7610   12.2010   65.8320 C   0  0  0  0  0  0  0  0  0  0  0  0
   -8.7090   11.5340   66.3150 C   0  0  0  0  0  0  0  0  0  0  0  0
  -10.5760   11.5250   64.7850 C   0  0  0  0  0  0  0  0  0  0  0  0
   -7.9090   12.0670   67.2600 F   0  0  0  0  0  0  0  0  0  0  0  0
  -11.7410   12.3540   64.2710 C   0  0  0  0  0  0  0  0  0  0  0  0
  -10.3230   10.4200   64.3420 O   0  0  0  0  0  0  0  0  0  0  0  0
  -12.0190   13.6930   64.9070 C   0  0  0  0  0  0  0  0  0  0  0  0
  -12.3790   12.0110   63.2920 O   0  0  0  0  0  0  0  0  0  0  0  0
  -13.1350   14.1870   64.9500 O   0  0  0  0  0  0  0  0  0  0  0  0
  -12.4010   15.5010   73.8000 C   0  0  0  0  0  0  0  0  0  0  0  0
  -12.0990   16.8170   74.2760 O   0  0  0  0  0  0  0  0  0  0  0  0
  -13.4650   16.3610   74.2410 O   0  0  0  0  0  0  0  0  0  0  0  0
  1 40  1  0  0  0  0
  1  2  2  0  0  0  0
  1  6  1  0  0  0  0
  2  3  1  0  0  0  0
  2 17  1  0  0  0  0
  3  4  1  0  0  0  0
  4  5  2  0  0  0  0
  4 15  1  0  0  0  0
  5  6  1  0  0  0  0
  5  7  1  0  0  0  0
  7  8  1  0  0  0  0
  7 13  1  0  0  0  0
  8  9  1  0  0  0  0
  9 10  2  0  0  0  0
  9 11  1  0  0  0  0
 11 12  1  0  0  0  0
 12 13  1  0  0  0  0
 12 16  1  0  0  0  0
 13 14  2  0  0  0  0
 14 15  1  0  0  0  0
 14 52  1  0  0  0  0
 17 18  2  0  0  0  0
 17 23  1  0  0  0  0
 18 19  1  0  0  0  0
 19 20  1  0  0  0  0
 19 21  2  0  0  0  0
 21 22  1  0  0  0  0
 22 23  2  0  0  0  0
 22 24  1  0  0  0  0
 23 25  1  0  0  0  0
 24 28  2  0  0  0  0
 24 34  1  0  0  0  0
 25 26  2  0  0  0  0
 26 27  1  0  0  0  0
 26 28  1  0  0  0  0
 27 29  2  0  0  0  0
 27 30  1  0  0  0  0
 28 33  1  0  0  0  0
 30 31  2  0  0  0  0
 30 32  1  0  0  0  0
 32 33  1  0  0  0  0
 32 35  1  0  0  0  0
 35 36  1  0  0  0  0
 35 37  1  0  0  0  0
 35 38  1  0  0  0  0
 37 38  1  0  0  0  0
 38 39  2  0  0  0  0
 40 41  1  0  0  0  0
 41 42  1  0  0  0  0
 41 49  1  0  0  0  0
 42 43  1  0  0  0  0
 43 44  2  0  0  0  0
 43 45  1  0  0  0  0
 44 46  1  0  0  0  0
 45 47  1  0  0  0  0
 45 48  2  0  0  0  0
 47 49  1  0  0  0  0
 47 50  2  0  0  0  0
 49 51  2  0  0  0  0
 52 53  1  0  0  0  0
 52 54  1  0  0  0  0
 53 54  1  0  0  0  0
M  CHG  2  15   1  19   1
M  END