
 OpenBabel09252022423D

 46 53  0  0  1  0  0  0  0  0999 V2000
  -10.5790   15.7030   67.4270 C   0  0  0  0  0  0  0  0  0  0  0  0
  -10.5870   16.8690   68.1060 C   0  0  0  0  0  0  0  0  0  0  0  0
  -11.1740   17.0270   69.3590 O   0  0  0  0  0  0  0  0  0  0  0  0
  -11.6830   15.9130   70.0110 C   0  0  0  0  0  0  0  0  0  0  0  0
  -11.6940   14.7050   69.4270 C   0  0  0  0  0  0  0  0  0  0  0  0
  -11.1980   14.4690   68.0390 C   0  0  0  0  0  0  0  0  0  0  0  0
  -12.2070   13.5520   70.2140 C   0  0  0  0  0  0  0  0  0  0  0  0
  -12.2080   12.3610   69.7110 N   0  0  0  0  0  0  0  0  0  0  0  0
  -12.6710   11.3070   70.4740 C   0  0  0  0  0  0  0  0  0  0  0  0
  -12.6440   10.1880   69.9830 O   0  0  0  0  0  0  0  0  0  0  0  0
  -13.1560   11.4530   71.7580 N   0  0  0  0  0  0  0  0  0  0  0  0
  -13.1740   12.6290   72.2830 C   0  0  0  0  0  0  0  0  0  0  0  0
  -12.6980   13.8230   71.5840 C   0  0  0  0  0  0  0  0  0  0  0  0
  -12.6710   15.0790   72.0730 C   0  0  0  0  0  0  0  0  0  0  0  0
  -12.1530   16.1000   71.2870 N   0  0  0  0  0  0  0  0  0  0  0  0
   -9.9310   18.0860   67.6010 C   0  0  0  0  0  0  0  0  0  0  0  0
  -10.7380   18.9040   66.8930 N   0  0  0  0  0  0  0  0  0  0  0  0
  -10.1690   20.0190   66.4290 C   0  0  0  0  0  0  0  0  0  0  0  0
   -8.8990   20.3970   66.6220 N   0  0  0  0  0  0  0  0  0  0  0  0
   -8.1190   19.5780   67.3330 C   0  0  0  0  0  0  0  0  0  0  0  0
   -8.5810   18.3680   67.8690 C   0  0  0  0  0  0  0  0  0  0  0  0
   -6.7990   19.9500   67.5610 C   0  0  0  0  0  0  0  0  0  0  0  0
   -7.6930   17.5510   68.6170 C   0  0  0  0  0  0  0  0  0  0  0  0
   -6.3770   17.9610   68.8420 C   0  0  0  0  0  0  0  0  0  0  0  0
   -5.9310   19.1690   68.3270 C   0  0  0  0  0  0  0  0  0  0  0  0
   -5.4530   17.1160   69.6110 C   0  0  0  0  0  0  0  0  0  0  0  0
   -4.6580   19.6410   68.4810 O   0  0  0  0  0  0  0  0  0  0  0  0
   -4.0120   19.2030   69.6680 C   0  0  0  0  0  0  0  0  0  0  0  0
   -4.1190   17.7310   69.9770 C   0  0  0  0  0  0  0  0  0  0  0  0
   -3.2670   17.0900   70.5750 O   0  0  0  0  0  0  0  0  0  0  0  0
   -5.7580   15.9900   69.9680 O   0  0  0  0  0  0  0  0  0  0  0  0
   -9.9280   15.5980   66.2030 O   0  0  0  0  0  0  0  0  0  0  0  0
   -9.9040   14.2990   65.6030 C   0  0  0  0  0  0  0  0  0  0  0  0
   -9.8000   13.2620   66.5780 O   0  0  0  0  0  0  0  0  0  0  0  0
   -9.6460   11.9950   66.0440 C   0  0  0  0  0  0  0  0  0  0  0  0
   -8.8990   11.0780   66.6700 C   0  0  0  0  0  0  0  0  0  0  0  0
  -10.3240   11.6030   64.7730 C   0  0  0  0  0  0  0  0  0  0  0  0
   -8.2320   11.3410   67.8380 O   0  0  0  0  0  0  0  0  0  0  0  0
  -11.1620   12.7040   64.1520 C   0  0  0  0  0  0  0  0  0  0  0  0
  -10.2070   10.5100   64.2450 O   0  0  0  0  0  0  0  0  0  0  0  0
  -11.1730   14.0630   64.8040 C   0  0  0  0  0  0  0  0  0  0  0  0
  -11.7670   12.5190   63.1080 O   0  0  0  0  0  0  0  0  0  0  0  0
  -12.1090   14.8320   64.6540 O   0  0  0  0  0  0  0  0  0  0  0  0
  -13.1380   15.4740   73.4220 C   0  0  0  0  0  0  0  0  0  0  0  0
  -12.3010   15.3150   74.5820 O   0  0  0  0  0  0  0  0  0  0  0  0
  -12.6350   16.6320   74.1070 O   0  0  0  0  0  0  0  0  0  0  0  0
  1 32  1  0  0  0  0
  1  2  2  0  0  0  0
  1  6  1  0  0  0  0
  2  3  1  0  0  0  0
  2 16  1  0  0  0  0
  3  4  1  0  0  0  0
  4  5  2  0  0  0  0
  4 15  1  0  0  0  0
  5  6  1  0  0  0  0
  5  7  1  0  0  0  0
  7  8  2  0  0  0  0
  7 13  1  0  0  0  0
  8  9  1  0  0  0  0
  9 10  2  0  0  0  0
  9 11  1  0  0  0  0
 11 12  2  0  0  0  0
 12 13  1  0  0  0  0
 13 14  2  0  0  0  0
 14 15  1  0  0  0  0
 14 44  1  0  0  0  0
 16 17  2  0  0  0  0
 16 21  1  0  0  0  0
 17 18  1  0  0  0  0
 18 19  2  0  0  0  0
 19 20  1  0  0  0  0
 20 21  2  0  0  0  0
 20 22  1  0  0  0  0
 21 23  1  0  0  0  0
 22 25  2  0  0  0  0
 23 24  2  0  0  0  0
 24 25  1  0  0  0  0
 24 26  1  0  0  0  0
 25 27  1  0  0  0  0
 26 29  1  0  0  0  0
 26 31  2  0  0  0  0
 27 28  1  0  0  0  0
 28 29  1  0  0  0  0
 29 30  2  0  0  0  0
 32 33  1  0  0  0  0
 33 34  1  0  0  0  0
 33 41  1  0  0  0  0
 34 35  1  0  0  0  0
 35 36  2  0  0  0  0
 35 37  1  0  0  0  0
 36 38  1  0  0  0  0
 37 39  1  0  0  0  0
 37 40  2  0  0  0  0
 39 41  1  0  0  0  0
 39 42  2  0  0  0  0
 41 43  2  0  0  0  0
 44 45  1  0  0  0  0
 44 46  1  0  0  0  0
 45 46  1  0  0  0  0
M  END
