
 OpenBabel11212001413D

 53 61  0  0  1  0  0  0  0  0999 V2000
  -11.1300   15.8650   67.2220 C   0  0  0  0  0  0  0  0  0  0  0  0
  -10.6140   16.9120   67.9090 C   0  0  0  0  0  0  0  0  0  0  0  0
  -10.6590   17.0050   69.2990 O   0  0  0  0  0  0  0  0  0  0  0  0
  -11.3230   16.0240   70.0240 C   0  0  0  0  0  0  0  0  0  0  0  0
  -11.8500   14.9370   69.4380 C   0  0  0  0  0  0  0  0  0  0  0  0
  -11.7590   14.7110   67.9660 C   0  0  0  0  0  0  0  0  0  0  0  0
  -12.6340   13.9290   70.2410 C   0  0  0  0  0  0  0  0  0  0  0  0
  -12.0140   12.6570   70.0790 O   0  0  0  0  0  0  0  0  0  0  0  0
  -12.3900   11.6100   70.8560 C   0  0  0  0  0  0  0  0  0  0  0  0
  -12.0500   10.4670   70.5820 O   0  0  0  0  0  0  0  0  0  0  0  0
  -13.1350   11.8790   71.9560 O   0  0  0  0  0  0  0  0  0  0  0  0
  -13.4980   13.1890   72.3760 C   0  0  0  0  0  0  0  0  0  0  0  0
  -12.7130   14.2350   71.6920 C   0  0  0  0  0  0  0  0  0  0  0  0
  -12.1370   15.3360   72.2250 C   0  0  0  0  0  0  0  0  0  0  0  0
  -11.4600   16.2070   71.3790 N   0  0  0  0  0  0  0  0  0  0  0  0
  -14.8630   13.4070   72.0580 O   0  0  0  0  0  0  0  0  0  0  0  0
   -9.9200   18.0450   67.2610 C   0  0  0  0  0  0  0  0  0  0  0  0
  -10.6090   18.7630   66.2970 C   0  0  0  0  0  0  0  0  0  0  0  0
  -10.0910   19.8410   65.6860 N   0  0  0  0  0  0  0  0  0  0  0  0
   -8.8500   20.2850   66.0510 N   0  0  0  0  0  0  0  0  0  0  0  0
   -8.1150   19.6390   66.9740 C   0  0  0  0  0  0  0  0  0  0  0  0
   -8.6050   18.4620   67.5830 C   0  0  0  0  0  0  0  0  0  0  0  0
   -6.8510   20.1180   67.3580 C   0  0  0  0  0  0  0  0  0  0  0  0
   -7.7530   17.7540   68.4640 C   0  0  0  0  0  0  0  0  0  0  0  0
   -6.4800   18.2400   68.7910 C   0  0  0  0  0  0  0  0  0  0  0  0
   -5.5720   17.4420   69.6230 C   0  0  0  0  0  0  0  0  0  0  0  0
   -6.0480   19.4580   68.2940 C   0  0  0  0  0  0  0  0  0  0  0  0
   -5.8380   16.2960   69.9470 O   0  0  0  0  0  0  0  0  0  0  0  0
   -4.2660   18.0950   70.0230 C   0  0  0  0  0  0  0  0  0  0  0  0
   -3.3500   17.4420   70.5000 O   0  0  0  0  0  0  0  0  0  0  0  0
   -4.2390   19.5940   69.8380 C   0  0  0  0  0  0  0  0  0  0  0  0
   -4.8660   20.0640   68.6360 O   0  0  0  0  0  0  0  0  0  0  0  0
   -6.3760   21.2860   66.7980 O   0  0  0  0  0  0  0  0  0  0  0  0
   -4.7900   20.2870   71.0460 C   0  0  0  0  0  0  0  0  0  0  0  0
   -6.2330   20.3250   71.1700 O   0  0  0  0  0  0  0  0  0  0  0  0
   -4.0770   20.0130   72.2540 O   0  0  0  0  0  0  0  0  0  0  0  0
   -4.0620   21.2900   71.8250 C   0  0  0  0  0  0  0  0  0  0  0  0
   -4.4600   22.2910   72.3740 O   0  0  0  0  0  0  0  0  0  0  0  0
  -11.0460   15.7970   65.8320 O   0  0  0  0  0  0  0  0  0  0  0  0
  -10.6510   14.5340   65.2720 C   0  0  0  0  0  0  0  0  0  0  0  0
  -10.4330   13.5710   66.3070 O   0  0  0  0  0  0  0  0  0  0  0  0
   -9.9290   12.3780   65.8270 C   0  0  0  0  0  0  0  0  0  0  0  0
   -9.1220   11.6310   66.5880 C   0  0  0  0  0  0  0  0  0  0  0  0
  -10.3050   11.8880   64.4660 C   0  0  0  0  0  0  0  0  0  0  0  0
   -8.7180   11.9740   67.8530 O   0  0  0  0  0  0  0  0  0  0  0  0
  -11.4700   12.5830   63.8050 C   0  0  0  0  0  0  0  0  0  0  0  0
   -9.7120   10.9500   63.9380 O   0  0  0  0  0  0  0  0  0  0  0  0
  -11.7120   13.9920   64.3080 C   0  0  0  0  0  0  0  0  0  0  0  0
  -12.6010   11.8220   63.9100 F   0  0  0  0  0  0  0  0  0  0  0  0
  -12.6630   14.6640   63.9050 O   0  0  0  0  0  0  0  0  0  0  0  0
  -12.1940   15.7060   73.6580 C   0  0  0  0  0  0  0  0  0  0  0  0
  -12.1310   17.0760   74.0850 O   0  0  0  0  0  0  0  0  0  0  0  0
  -13.3510   16.3260   74.2460 O   0  0  0  0  0  0  0  0  0  0  0  0
  1 39  1  0  0  0  0
  1  2  2  0  0  0  0
  1  6  1  0  0  0  0
  2  3  1  0  0  0  0
  2 17  1  0  0  0  0
  3  4  1  0  0  0  0
  4  5  2  0  0  0  0
  4 15  1  0  0  0  0
  5  6  1  0  0  0  0
  5  7  1  0  0  0  0
  7  8  1  0  0  0  0
  7 13  1  0  0  0  0
  8  9  1  0  0  0  0
  9 10  2  0  0  0  0
  9 11  1  0  0  0  0
 11 12  1  0  0  0  0
 12 13  1  0  0  0  0
 12 16  1  0  0  0  0
 13 14  2  0  0  0  0
 14 15  1  0  0  0  0
 14 51  1  0  0  0  0
 17 18  2  0  0  0  0
 17 22  1  0  0  0  0
 18 19  1  0  0  0  0
 19 20  2  0  0  0  0
 20 21  1  0  0  0  0
 21 22  2  0  0  0  0
 21 23  1  0  0  0  0
 22 24  1  0  0  0  0
 23 27  2  0  0  0  0
 23 33  1  0  0  0  0
 24 25  2  0  0  0  0
 25 26  1  0  0  0  0
 25 27  1  0  0  0  0
 26 28  2  0  0  0  0
 26 29  1  0  0  0  0
 27 32  1  0  0  0  0
 29 30  2  0  0  0  0
 29 31  1  0  0  0  0
 31 32  1  0  0  0  0
 31 34  1  0  0  0  0
 34 35  1  0  0  0  0
 34 36  1  0  0  0  0
 34 37  1  0  0  0  0
 36 37  1  0  0  0  0
 37 38  2  0  0  0  0
 39 40  1  0  0  0  0
 40 41  1  0  0  0  0
 40 48  1  0  0  0  0
 41 42  1  0  0  0  0
 42 43  2  0  0  0  0
 42 44  1  0  0  0  0
 43 45  1  0  0  0  0
 44 46  1  0  0  0  0
 44 47  2  0  0  0  0
 46 48  1  0  0  0  0
 46 49  1  0  0  0  0
 48 50  2  0  0  0  0
 51 52  1  0  0  0  0
 51 53  1  0  0  0  0
 52 53  1  0  0  0  0
M  END
