
 OpenBabel11262000073D

 54 62  0  0  1  0  0  0  0  0999 V2000
  -10.8660   15.7300   67.4490 C   0  0  0  0  0  0  0  0  0  0  0  0
  -10.5250   16.8460   68.1360 C   0  0  0  0  0  0  0  0  0  0  0  0
  -10.8710   17.0720   69.4680 O   0  0  0  0  0  0  0  0  0  0  0  0
  -11.5590   16.0920   70.1580 C   0  0  0  0  0  0  0  0  0  0  0  0
  -11.8150   14.8620   69.6000 C   0  0  0  0  0  0  0  0  0  0  0  0
  -11.5050   14.5780   68.1730 C   0  0  0  0  0  0  0  0  0  0  0  0
  -12.3980   13.9090   70.4230 C   0  0  0  0  0  0  0  0  0  0  0  0
  -12.6380   12.6320   69.8960 O   0  0  0  0  0  0  0  0  0  0  0  0
  -12.7730   11.5280   70.7420 C   0  0  0  0  0  0  0  0  0  0  0  0
  -12.7230   10.3850   70.3040 O   0  0  0  0  0  0  0  0  0  0  0  0
  -12.8740   11.8050   72.0640 O   0  0  0  0  0  0  0  0  0  0  0  0
  -13.4140   13.0640   72.4680 C   0  0  0  0  0  0  0  0  0  0  0  0
  -12.7730   14.1830   71.7240 C   0  0  0  0  0  0  0  0  0  0  0  0
  -12.5770   15.4820   72.2000 C   0  0  0  0  0  0  0  0  0  0  0  0
  -11.9360   16.4090   71.4200 N   0  0  0  0  0  0  0  0  0  0  0  0
  -14.8230   13.0590   72.3060 O   0  0  0  0  0  0  0  0  0  0  0  0
   -9.7310   17.9460   67.5390 C   0  0  0  0  0  0  0  0  0  0  0  0
  -10.3860   18.8430   66.6960 C   0  0  0  0  0  0  0  0  0  0  0  0
   -9.6370   19.8200   66.0810 C   0  0  0  0  0  0  0  0  0  0  0  0
  -10.2590   20.6860   65.2690 F   0  0  0  0  0  0  0  0  0  0  0  0
   -8.3080   19.9580   66.2250 N   0  0  0  0  0  0  0  0  0  0  0  0
   -7.6590   19.1150   67.0460 C   0  0  0  0  0  0  0  0  0  0  0  0
   -8.3290   18.0960   67.7650 C   0  0  0  0  0  0  0  0  0  0  0  0
   -6.2710   19.2340   67.1850 C   0  0  0  0  0  0  0  0  0  0  0  0
   -7.5650   17.2960   68.6550 C   0  0  0  0  0  0  0  0  0  0  0  0
   -6.1740   17.4630   68.7740 C   0  0  0  0  0  0  0  0  0  0  0  0
   -5.4040   16.6160   69.6850 C   0  0  0  0  0  0  0  0  0  0  0  0
   -5.5120   18.4130   68.0230 C   0  0  0  0  0  0  0  0  0  0  0  0
   -5.9350   15.9120   70.5280 O   0  0  0  0  0  0  0  0  0  0  0  0
   -3.9050   16.6420   69.5350 C   0  0  0  0  0  0  0  0  0  0  0  0
   -3.2190   15.7230   69.9650 O   0  0  0  0  0  0  0  0  0  0  0  0
   -3.3350   17.9020   68.9310 C   0  0  0  0  0  0  0  0  0  0  0  0
   -4.1640   18.6250   68.0230 O   0  0  0  0  0  0  0  0  0  0  0  0
   -5.6240   20.1720   66.4700 F   0  0  0  0  0  0  0  0  0  0  0  0
   -2.7740   18.7890   70.0190 C   0  0  0  0  0  0  0  0  0  0  0  0
   -3.6910   19.2280   71.0500 O   0  0  0  0  0  0  0  0  0  0  0  0
   -1.4650   18.4360   70.4970 O   0  0  0  0  0  0  0  0  0  0  0  0
   -1.5790   19.5870   69.8240 C   0  0  0  0  0  0  0  0  0  0  0  0
   -1.0560   19.9960   68.8030 O   0  0  0  0  0  0  0  0  0  0  0  0
  -10.5720   15.5700   66.0960 O   0  0  0  0  0  0  0  0  0  0  0  0
  -10.1290   14.2570   65.6910 C   0  0  0  0  0  0  0  0  0  0  0  0
   -9.8860   13.4280   66.8220 O   0  0  0  0  0  0  0  0  0  0  0  0
   -9.4560   12.1540   66.5140 C   0  0  0  0  0  0  0  0  0  0  0  0
   -8.4990   11.5450   67.2280 C   0  0  0  0  0  0  0  0  0  0  0  0
  -10.0540   11.3950   65.3720 C   0  0  0  0  0  0  0  0  0  0  0  0
   -7.8410   12.1430   68.2710 O   0  0  0  0  0  0  0  0  0  0  0  0
  -10.7960   12.1920   64.3300 C   0  0  0  0  0  0  0  0  0  0  0  0
   -9.8650   10.1830   65.2580 O   0  0  0  0  0  0  0  0  0  0  0  0
  -11.1380   13.6050   64.7400 C   0  0  0  0  0  0  0  0  0  0  0  0
  -11.8980   11.5160   63.8840 F   0  0  0  0  0  0  0  0  0  0  0  0
  -12.0630   14.2310   64.2180 O   0  0  0  0  0  0  0  0  0  0  0  0
  -13.0390   15.9590   73.5620 C   0  0  0  0  0  0  0  0  0  0  0  0
  -12.2900   15.4780   74.6930 O   0  0  0  0  0  0  0  0  0  0  0  0
  -12.2310   16.8660   74.3280 O   0  0  0  0  0  0  0  0  0  0  0  0
  1 40  1  0  0  0  0
  1  2  2  0  0  0  0
  1  6  1  0  0  0  0
  2  3  1  0  0  0  0
  2 17  1  0  0  0  0
  3  4  1  0  0  0  0
  4  5  2  0  0  0  0
  4 15  1  0  0  0  0
  5  6  1  0  0  0  0
  5  7  1  0  0  0  0
  7  8  1  0  0  0  0
  7 13  2  0  0  0  0
  8  9  1  0  0  0  0
  9 10  2  0  0  0  0
  9 11  1  0  0  0  0
 11 12  1  0  0  0  0
 12 13  1  0  0  0  0
 12 16  1  0  0  0  0
 13 14  1  0  0  0  0
 14 15  2  0  0  0  0
 14 52  1  0  0  0  0
 17 18  2  0  0  0  0
 17 23  1  0  0  0  0
 18 19  1  0  0  0  0
 19 20  1  0  0  0  0
 19 21  2  0  0  0  0
 21 22  1  0  0  0  0
 22 23  2  0  0  0  0
 22 24  1  0  0  0  0
 23 25  1  0  0  0  0
 24 28  2  0  0  0  0
 24 34  1  0  0  0  0
 25 26  2  0  0  0  0
 26 27  1  0  0  0  0
 26 28  1  0  0  0  0
 27 29  2  0  0  0  0
 27 30  1  0  0  0  0
 28 33  1  0  0  0  0
 30 31  2  0  0  0  0
 30 32  1  0  0  0  0
 32 33  1  0  0  0  0
 32 35  1  0  0  0  0
 35 36  1  0  0  0  0
 35 37  1  0  0  0  0
 35 38  1  0  0  0  0
 37 38  1  0  0  0  0
 38 39  2  0  0  0  0
 40 41  1  0  0  0  0
 41 42  1  0  0  0  0
 41 49  1  0  0  0  0
 42 43  1  0  0  0  0
 43 44  2  0  0  0  0
 43 45  1  0  0  0  0
 44 46  1  0  0  0  0
 45 47  1  0  0  0  0
 45 48  2  0  0  0  0
 47 49  1  0  0  0  0
 47 50  1  0  0  0  0
 49 51  2  0  0  0  0
 52 53  1  0  0  0  0
 52 54  1  0  0  0  0
 53 54  1  0  0  0  0
M  END
