
 OpenBabel11242001293D

 53 62  0  0  1  0  0  0  0  0999 V2000
   -9.7280   15.5630   68.4110 C   0  0  0  0  0  0  0  0  0  0  0  0
   -9.8420   16.8090   68.9350 C   0  0  0  0  0  0  0  0  0  0  0  0
  -10.5060   17.0380   70.1340 O   0  0  0  0  0  0  0  0  0  0  0  0
  -11.2970   16.0470   70.6820 C   0  0  0  0  0  0  0  0  0  0  0  0
  -11.2580   14.7840   70.2340 C   0  0  0  0  0  0  0  0  0  0  0  0
  -10.3870   14.3790   69.0920 C   0  0  0  0  0  0  0  0  0  0  0  0
  -12.1360   13.7890   70.8610 C   0  0  0  0  0  0  0  0  0  0  0  0
  -12.0880   12.5420   70.3470 N   0  0  0  0  0  0  0  0  0  0  0  0
  -12.9130   11.6670   70.9210 C   0  0  0  0  0  0  0  0  0  0  0  0
  -12.8510   10.4090   70.4140 O   0  0  0  0  0  0  0  0  0  0  0  0
  -13.7590   11.8900   71.9240 N   0  0  0  0  0  0  0  0  0  0  0  0
  -13.7650   13.1460   72.4090 C   0  0  0  0  0  0  0  0  0  0  0  0
  -12.9540   14.1510   71.9240 C   0  0  0  0  0  0  0  0  0  0  0  0
  -12.9200   15.5320   72.5160 C   0  0  0  0  0  0  0  0  0  0  0  0
  -12.1340   16.4390   71.6860 N   0  0  0  0  0  0  0  0  0  0  0  0
   -9.2640   18.0540   68.3460 C   0  0  0  0  0  0  0  0  0  0  0  0
  -10.1220   18.9010   67.6520 C   0  0  0  0  0  0  0  0  0  0  0  0
   -9.6900   20.0330   67.1000 N   0  0  0  0  0  0  0  0  0  0  0  0
  -10.5810   20.8440   66.4970 F   0  0  0  0  0  0  0  0  0  0  0  0
   -8.4220   20.3840   67.1100 N   0  0  0  0  0  0  0  0  0  0  0  0
   -7.5230   19.5980   67.7080 C   0  0  0  0  0  0  0  0  0  0  0  0
   -7.8820   18.4090   68.3770 C   0  0  0  0  0  0  0  0  0  0  0  0
   -6.1810   19.9810   67.6610 C   0  0  0  0  0  0  0  0  0  0  0  0
   -6.8310   17.6720   69.0040 C   0  0  0  0  0  0  0  0  0  0  0  0
   -5.4860   18.0730   68.9200 C   0  0  0  0  0  0  0  0  0  0  0  0
   -5.1610   19.2480   68.2660 C   0  0  0  0  0  0  0  0  0  0  0  0
   -4.4080   17.2450   69.4980 C   0  0  0  0  0  0  0  0  0  0  0  0
   -3.8790   19.7340   68.1800 O   0  0  0  0  0  0  0  0  0  0  0  0
   -2.9890   19.2110   69.1970 C   0  0  0  0  0  0  0  0  0  0  0  0
   -2.9850   17.7470   69.3340 C   0  0  0  0  0  0  0  0  0  0  0  0
   -1.7740   19.8890   69.3860 O   0  0  0  0  0  0  0  0  0  0  0  0
   -2.7580   19.9860   70.4590 C   0  0  0  0  0  0  0  0  0  0  0  0
   -2.0000   17.0350   69.3290 O   0  0  0  0  0  0  0  0  0  0  0  0
   -3.7170   21.1070   70.4350 O   0  0  0  0  0  0  0  0  0  0  0  0
   -2.5750   21.2820   71.0660 C   0  0  0  0  0  0  0  0  0  0  0  0
   -2.3470   21.6330   72.2020 O   0  0  0  0  0  0  0  0  0  0  0  0
   -4.6570   16.2100   70.0960 O   0  0  0  0  0  0  0  0  0  0  0  0
   -5.8560   21.1050   67.0010 F   0  0  0  0  0  0  0  0  0  0  0  0
   -9.0750   15.3550   67.2060 O   0  0  0  0  0  0  0  0  0  0  0  0
   -9.7610   14.6800   66.1280 C   0  0  0  0  0  0  0  0  0  0  0  0
  -10.7480   13.8030   66.6450 O   0  0  0  0  0  0  0  0  0  0  0  0
  -11.5340   13.1980   65.6790 C   0  0  0  0  0  0  0  0  0  0  0  0
  -12.0320   11.9680   65.8580 C   0  0  0  0  0  0  0  0  0  0  0  0
  -11.9020   13.9200   64.4290 C   0  0  0  0  0  0  0  0  0  0  0  0
  -11.7680   11.2140   66.9700 O   0  0  0  0  0  0  0  0  0  0  0  0
  -11.5280   15.3840   64.4620 C   0  0  0  0  0  0  0  0  0  0  0  0
  -12.3990   13.4010   63.4440 O   0  0  0  0  0  0  0  0  0  0  0  0
  -10.3530   15.8110   65.3020 C   0  0  0  0  0  0  0  0  0  0  0  0
  -12.1730   16.2160   63.8430 O   0  0  0  0  0  0  0  0  0  0  0  0
   -9.9120   16.9600   65.2660 O   0  0  0  0  0  0  0  0  0  0  0  0
  -12.3130   15.4920   73.8890 C   0  0  0  0  0  0  0  0  0  0  0  0
  -11.9600   16.7710   74.4290 O   0  0  0  0  0  0  0  0  0  0  0  0
  -13.1070   16.0480   74.9360 O   0  0  0  0  0  0  0  0  0  0  0  0
  1 39  1  0  0  0  0
  1  2  2  0  0  0  0
  1  6  1  0  0  0  0
  2  3  1  0  0  0  0
  2 16  1  0  0  0  0
  3  4  1  0  0  0  0
  4  5  2  0  0  0  0
  4 15  1  0  0  0  0
  5  6  1  0  0  0  0
  5  7  1  0  0  0  0
  7  8  2  0  0  0  0
  7 13  1  0  0  0  0
  8  9  1  0  0  0  0
  9 10  1  0  0  0  0
  9 11  2  0  0  0  0
 11 12  1  0  0  0  0
 12 13  2  0  0  0  0
 13 14  1  0  0  0  0
 14 15  1  0  0  0  0
 14 51  1  0  0  0  0
 16 17  2  0  0  0  0
 16 22  1  0  0  0  0
 17 18  1  0  0  0  0
 18 19  1  0  0  0  0
 18 20  2  0  0  0  0
 20 21  1  0  0  0  0
 21 22  2  0  0  0  0
 21 23  1  0  0  0  0
 22 24  1  0  0  0  0
 23 26  2  0  0  0  0
 23 38  1  0  0  0  0
 24 25  2  0  0  0  0
 25 26  1  0  0  0  0
 25 27  1  0  0  0  0
 26 28  1  0  0  0  0
 27 30  1  0  0  0  0
 27 37  2  0  0  0  0
 28 29  1  0  0  0  0
 29 30  1  0  0  0  0
 29 31  1  0  0  0  0
 29 32  1  0  0  0  0
 30 33  2  0  0  0  0
 31 32  1  0  0  0  0
 32 34  1  0  0  0  0
 32 35  1  0  0  0  0
 34 35  1  0  0  0  0
 35 36  2  0  0  0  0
 39 40  1  0  0  0  0
 40 41  1  0  0  0  0
 40 48  1  0  0  0  0
 41 42  1  0  0  0  0
 42 43  2  0  0  0  0
 42 44  1  0  0  0  0
 43 45  1  0  0  0  0
 44 46  1  0  0  0  0
 44 47  2  0  0  0  0
 46 48  1  0  0  0  0
 46 49  2  0  0  0  0
 48 50  2  0  0  0  0
 51 52  1  0  0  0  0
 51 53  1  0  0  0  0
 52 53  1  0  0  0  0
M  CHG  1  18   1
M  END