
 OpenBabel10252014153D

 94109  0  0  1  0  0  0  0  0999 V2000
   -5.3330   20.2750   68.8950 C   0  0  0  0  0  0  0  0  0  0  0  0
   -6.6330   19.7070   69.2450 O   0  0  0  0  0  0  0  0  0  0  0  0
   -6.8610   18.3950   68.9740 C   0  0  0  0  0  0  0  0  0  0  0  0
   -5.8230   17.4860   68.8930 C   0  0  0  0  0  0  0  0  0  0  0  0
   -4.4330   17.8740   69.2820 C   0  0  0  0  0  0  0  0  0  0  0  0
   -4.0970   19.3670   69.1400 C   0  0  0  0  0  0  0  0  0  0  0  0
   -4.3050   17.3710   70.6190 O   0  0  0  0  0  0  0  0  0  0  0  0
   -6.1040   16.1510   68.5570 C   0  0  0  0  0  0  0  0  0  0  0  0
   -7.3920   15.6410   68.3090 C   0  0  0  0  0  0  0  0  0  0  0  0
   -8.4750   16.5650   68.4250 C   0  0  0  0  0  0  0  0  0  0  0  0
   -8.1620   17.9260   68.7620 C   0  0  0  0  0  0  0  0  0  0  0  0
   -9.1730   18.8130   68.8750 F   0  0  0  0  0  0  0  0  0  0  0  0
   -9.7580   16.0180   68.2160 C   0  0  0  0  0  0  0  0  0  0  0  0
  -11.2170   16.9320   68.4490 Cl  0  0  0  0  0  0  0  0  0  0  0  0
   -9.9780   14.6590   67.8580 C   0  0  0  0  0  0  0  0  0  0  0  0
   -8.9410   13.7170   67.7110 C   0  0  0  0  0  0  0  0  0  0  0  0
   -7.6520   14.2540   67.9910 C   0  0  0  0  0  0  0  0  0  0  0  0
   -6.3000   13.1430   68.1100 Cl  0  0  0  0  0  0  0  0  0  0  0  0
   -5.3620   20.9140   67.4400 C   0  0  0  0  0  0  0  0  0  0  0  0
   -4.0760   20.6530   66.6020 C   0  0  0  0  0  0  0  0  0  0  0  0
   -3.0200   21.7780   66.6380 C   0  0  0  0  0  0  0  0  0  0  0  0
   -4.2370   20.1700   65.1770 C   0  0  0  0  0  0  0  0  0  0  0  0
   -2.4910   21.8060   67.9000 F   0  0  0  0  0  0  0  0  0  0  0  0
   -1.8300   21.5190   65.6950 C   0  0  0  0  0  0  0  0  0  0  0  0
   -1.7700   20.0400   65.2570 C   0  0  0  0  0  0  0  0  0  0  0  0
   -0.4710   19.7310   64.5220 C   0  0  0  0  0  0  0  0  0  0  0  0
   -3.0700   19.7590   64.4970 C   0  0  0  0  0  0  0  0  0  0  0  0
   -0.6470   19.7950   63.0120 C   0  0  0  0  0  0  0  0  0  0  0  0
   -1.7910   18.8830   62.5400 C   0  0  0  0  0  0  0  0  0  0  0  0
   -3.1290   19.2470   63.1640 C   0  0  0  0  0  0  0  0  0  0  0  0
   -1.3330   17.1880   63.0520 Cl  0  0  0  0  0  0  0  0  0  0  0  0
   -4.3960   19.1520   62.4880 C   0  0  0  0  0  0  0  0  0  0  0  0
   -5.5250   19.6390   63.2230 C   0  0  0  0  0  0  0  0  0  0  0  0
   -5.4600   20.1440   64.5350 C   0  0  0  0  0  0  0  0  0  0  0  0
   -6.6560   20.7420   65.2280 C   0  0  0  0  0  0  0  0  0  0  0  0
   -6.6350   20.4090   66.7180 C   0  0  0  0  0  0  0  0  0  0  0  0
   -4.6540   18.6140   61.0790 C   0  0  0  0  0  0  0  0  0  0  0  0
   -4.4020   17.2590   60.7440 C   0  0  0  0  0  0  0  0  0  0  0  0
   -4.4880   16.7380   59.4170 C   0  0  0  0  0  0  0  0  0  0  0  0
   -4.0040   15.3190   59.1400 C   0  0  0  0  0  0  0  0  0  0  0  0
   -4.9470   17.5540   58.3780 C   0  0  0  0  0  0  0  0  0  0  0  0
   -2.4610   15.2980   59.1380 C   0  0  0  0  0  0  0  0  0  0  0  0
   -4.5840   14.7310   57.8300 C   0  0  0  0  0  0  0  0  0  0  0  0
   -1.9020   13.9120   58.8380 C   0  0  0  0  0  0  0  0  0  0  0  0
   -2.4390   13.3390   57.5190 C   0  0  0  0  0  0  0  0  0  0  0  0
   -3.9860   13.3280   57.5350 C   0  0  0  0  0  0  0  0  0  0  0  0
   -1.8430   11.9440   57.2950 C   0  0  0  0  0  0  0  0  0  0  0  0
   -4.5840   12.7180   56.2620 C   0  0  0  0  0  0  0  0  0  0  0  0
   -4.4240   15.7400   56.6770 C   0  0  0  0  0  0  0  0  0  0  0  0
   -5.1800   17.0460   56.9680 C   0  0  0  0  0  0  0  0  0  0  0  0
   -6.6860   16.8790   56.7080 C   0  0  0  0  0  0  0  0  0  0  0  0
   -5.2390   18.8770   58.6820 C   0  0  0  0  0  0  0  0  0  0  0  0
   -5.0620   19.3830   59.9770 C   0  0  0  0  0  0  0  0  0  0  0  0
   -5.2840   20.6910   60.0780 F   0  0  0  0  0  0  0  0  0  0  0  0
   -3.3530   19.7620   70.3160 O   0  0  0  0  0  0  0  0  0  0  0  0
   -2.0050   19.9870   70.1920 C   0  0  0  0  0  0  0  0  0  0  0  0
   -1.1420   19.3760   69.2760 C   0  0  0  0  0  0  0  0  0  0  0  0
    0.2070   19.7460   69.2170 C   0  0  0  0  0  0  0  0  0  0  0  0
    0.7130   20.7050   70.0890 C   0  0  0  0  0  0  0  0  0  0  0  0
   -0.1330   21.2790   71.0330 C   0  0  0  0  0  0  0  0  0  0  0  0
   -1.4800   20.9150   71.0960 C   0  0  0  0  0  0  0  0  0  0  0  0
    0.5420   22.5900   72.2170 Br  0  0  0  0  0  0  0  0  0  0  0  0
   -9.2700   12.2580   67.3450 C   0  0  0  0  0  0  0  0  0  0  0  0
   -9.3540   11.2560   68.3620 C   0  0  0  0  0  0  0  0  0  0  0  0
   -9.5670    9.8150   68.1510 C   0  0  0  0  0  0  0  0  0  0  0  0
   -9.6010    8.5790   69.0800 C   0  0  0  0  0  0  0  0  0  0  0  0
   -9.7880    9.5290   66.7840 N   0  0  0  0  0  0  0  0  0  0  0  0
   -9.7540    7.2890   68.5350 C   0  0  0  0  0  0  0  0  0  0  0  0
   -9.4810    6.1110   69.2880 N   0  0  0  0  0  0  0  0  0  0  0  0
   -9.9850    7.2180   67.1760 C   0  0  0  0  0  0  0  0  0  0  0  0
  -10.0200    8.2790   66.3710 N   0  0  0  0  0  0  0  0  0  0  0  0
   -9.8000   10.4920   65.8060 N   0  0  0  0  0  0  0  0  0  0  0  0
   -9.5520   11.8030   66.0430 C   0  0  0  0  0  0  0  0  0  0  0  0
  -10.1220   10.0230   64.1730 Cl  0  0  0  0  0  0  0  0  0  0  0  0
   -9.7630   12.6740   65.0140 O   0  0  0  0  0  0  0  0  0  0  0  0
   -9.4120    8.5240   70.6600 N   0  0  0  0  0  0  0  0  0  0  0  0
  -10.4550    8.0890   71.5180 N   0  0  0  0  0  0  0  0  0  0  0  0
  -12.1170    8.4210   71.1440 Cl  0  0  0  0  0  0  0  0  0  0  0  0
  -10.2190    7.6100   72.7960 C   0  0  0  0  0  0  0  0  0  0  0  0
   -8.9720    7.7330   73.4640 C   0  0  0  0  0  0  0  0  0  0  0  0
   -7.9940    8.3960   72.7300 C   0  0  0  0  0  0  0  0  0  0  0  0
   -8.6460    7.2880   74.7880 N   0  0  0  0  0  0  0  0  0  0  0  0
   -8.1890    8.7100   71.2880 C   0  0  0  0  0  0  0  0  0  0  0  0
   -6.8750    8.7090   73.3920 N   0  0  0  0  0  0  0  0  0  0  0  0
   -7.0880    9.1380   70.5320 N   0  0  0  0  0  0  0  0  0  0  0  0
   -6.6260    8.4700   74.7060 N   0  0  0  0  0  0  0  0  0  0  0  0
   -7.4740    7.6980   75.4710 C   0  0  0  0  0  0  0  0  0  0  0  0
   -5.1430    9.1350   75.2440 Cl  0  0  0  0  0  0  0  0  0  0  0  0
   -7.3120    7.2620   76.7730 N   0  0  0  0  0  0  0  0  0  0  0  0
   -8.1330    6.3410   77.3250 C   0  0  0  0  0  0  0  0  0  0  0  0
   -6.0960    7.8350   77.8400 Cl  0  0  0  0  0  0  0  0  0  0  0  0
   -9.1660    5.8500   76.6240 N   0  0  0  0  0  0  0  0  0  0  0  0
   -9.4600    6.3650   75.4010 N   0  0  0  0  0  0  0  0  0  0  0  0
   -9.9860    4.7190   77.1940 C   0  0  0  0  0  0  0  0  0  0  0  0
  1 19  1  0  0  0  0
  1  2  1  0  0  0  0
  1  6  1  0  0  0  0
  2  3  1  0  0  0  0
  3  4  2  0  0  0  0
  3 11  1  0  0  0  0
  4  5  1  0  0  0  0
  4  8  1  0  0  0  0
  5  6  1  0  0  0  0
  5  7  1  0  0  0  0
  6 55  1  0  0  0  0
  8  9  2  0  0  0  0
  9 10  1  0  0  0  0
  9 17  1  0  0  0  0
 10 11  2  0  0  0  0
 10 13  1  0  0  0  0
 11 12  1  0  0  0  0
 13 14  1  0  0  0  0
 13 15  2  0  0  0  0
 15 16  1  0  0  0  0
 16 17  2  0  0  0  0
 16 63  1  0  0  0  0
 17 18  1  0  0  0  0
 19 20  1  0  0  0  0
 19 36  1  0  0  0  0
 20 21  1  0  0  0  0
 20 22  1  0  0  0  0
 21 23  1  0  0  0  0
 21 24  1  0  0  0  0
 22 27  1  0  0  0  0
 22 34  2  0  0  0  0
 24 25  1  0  0  0  0
 25 26  1  0  0  0  0
 25 27  1  0  0  0  0
 26 28  1  0  0  0  0
 27 30  2  0  0  0  0
 28 29  1  0  0  0  0
 29 30  1  0  0  0  0
 29 31  1  0  0  0  0
 30 32  1  0  0  0  0
 32 33  2  0  0  0  0
 32 37  1  0  0  0  0
 33 34  1  0  0  0  0
 34 35  1  0  0  0  0
 35 36  1  0  0  0  0
 37 38  2  0  0  0  0
 37 53  1  0  0  0  0
 38 39  1  0  0  0  0
 39 40  1  0  0  0  0
 39 41  2  0  0  0  0
 40 42  1  0  0  0  0
 40 43  1  0  0  0  0
 41 50  1  0  0  0  0
 41 52  1  0  0  0  0
 42 44  1  0  0  0  0
 43 46  1  0  0  0  0
 43 49  1  0  0  0  0
 44 45  1  0  0  0  0
 45 46  1  0  0  0  0
 45 47  1  0  0  0  0
 46 48  1  0  0  0  0
 49 50  1  0  0  0  0
 50 51  1  0  0  0  0
 52 53  2  0  0  0  0
 53 54  1  0  0  0  0
 55 56  1  0  0  0  0
 56 57  2  0  0  0  0
 56 61  1  0  0  0  0
 57 58  1  0  0  0  0
 58 59  2  0  0  0  0
 59 60  1  0  0  0  0
 60 61  2  0  0  0  0
 60 62  1  0  0  0  0
 63 64  2  0  0  0  0
 63 73  1  0  0  0  0
 64 65  1  0  0  0  0
 65 66  2  0  0  0  0
 65 67  1  0  0  0  0
 66 68  1  0  0  0  0
 66 76  1  0  0  0  0
 67 71  2  0  0  0  0
 67 72  1  0  0  0  0
 68 69  1  0  0  0  0
 68 70  2  0  0  0  0
 70 71  1  0  0  0  0
 72 73  2  0  0  0  0
 72 74  1  0  0  0  0
 73 75  1  0  0  0  0
 76 77  2  0  0  0  0
 76 83  1  0  0  0  0
 77 78  1  0  0  0  0
 77 79  1  0  0  0  0
 79 80  2  0  0  0  0
 80 81  1  0  0  0  0
 80 82  1  0  0  0  0
 81 83  2  0  0  0  0
 81 84  1  0  0  0  0
 82 87  2  0  0  0  0
 82 93  1  0  0  0  0
 83 85  1  0  0  0  0
 84 86  2  0  0  0  0
 86 87  1  0  0  0  0
 86 88  1  0  0  0  0
 87 89  1  0  0  0  0
 89 90  2  0  0  0  0
 89 91  1  0  0  0  0
 90 92  1  0  0  0  0
 92 93  2  0  0  0  0
 92 94  1  0  0  0  0
M  CHG  8  67   1  72   1  76   1  77   1  86   1  82   1  92   1  89   1
M  END