
 OpenBabel10272000503D

 51 59  0  0  1  0  0  0  0  0999 V2000
  -10.7180   16.0330   67.5120 C   0  0  0  0  0  0  0  0  0  0  0  0
  -10.6600   17.1610   68.2570 C   0  0  0  0  0  0  0  0  0  0  0  0
  -11.0240   17.1740   69.6110 O   0  0  0  0  0  0  0  0  0  0  0  0
  -11.6220   16.0530   70.1660 C   0  0  0  0  0  0  0  0  0  0  0  0
  -11.6820   14.8840   69.5120 C   0  0  0  0  0  0  0  0  0  0  0  0
  -11.1120   14.7210   68.1470 C   0  0  0  0  0  0  0  0  0  0  0  0
  -12.4300   13.7200   70.0940 C   0  0  0  0  0  0  0  0  0  0  0  0
  -11.6020   12.5640   70.0620 O   0  0  0  0  0  0  0  0  0  0  0  0
  -12.2500   11.4120   70.3790 C   0  0  0  0  0  0  0  0  0  0  0  0
  -11.9050   10.3270   69.9370 O   0  0  0  0  0  0  0  0  0  0  0  0
  -13.3430   11.5690   71.1750 O   0  0  0  0  0  0  0  0  0  0  0  0
  -13.3680   12.6590   72.1130 C   0  0  0  0  0  0  0  0  0  0  0  0
  -12.8590   13.9160   71.5080 C   0  0  0  0  0  0  0  0  0  0  0  0
  -12.7360   15.1140   72.1250 C   0  0  0  0  0  0  0  0  0  0  0  0
  -12.1850   16.1730   71.4150 N   0  0  0  0  0  0  0  0  0  0  0  0
  -10.1980   18.5090   67.7290 C   0  0  0  0  0  0  0  0  0  0  0  0
  -10.8210   18.6910   66.4510 O   0  0  0  0  0  0  0  0  0  0  0  0
  -10.3370   19.8750   65.8370 C   0  0  0  0  0  0  0  0  0  0  0  0
   -8.9610   19.8060   65.4720 O   0  0  0  0  0  0  0  0  0  0  0  0
   -8.1710   19.2940   66.4630 C   0  0  0  0  0  0  0  0  0  0  0  0
   -8.6950   18.6480   67.5880 C   0  0  0  0  0  0  0  0  0  0  0  0
   -6.7900   19.4420   66.2910 C   0  0  0  0  0  0  0  0  0  0  0  0
   -7.8030   18.2020   68.5740 C   0  0  0  0  0  0  0  0  0  0  0  0
   -6.4190   18.3600   68.4000 C   0  0  0  0  0  0  0  0  0  0  0  0
   -5.9060   18.9820   67.2660 C   0  0  0  0  0  0  0  0  0  0  0  0
   -5.4930   17.8480   69.4140 C   0  0  0  0  0  0  0  0  0  0  0  0
   -4.5810   19.1870   67.0130 O   0  0  0  0  0  0  0  0  0  0  0  0
   -3.6580   18.9780   68.0880 C   0  0  0  0  0  0  0  0  0  0  0  0
   -4.0280   17.8950   69.0700 C   0  0  0  0  0  0  0  0  0  0  0  0
   -3.2320   17.1410   69.6120 O   0  0  0  0  0  0  0  0  0  0  0  0
   -5.8740   17.4120   70.4900 O   0  0  0  0  0  0  0  0  0  0  0  0
   -3.3810   20.2730   68.7960 C   0  0  0  0  0  0  0  0  0  0  0  0
   -4.5250   21.0000   69.2990 O   0  0  0  0  0  0  0  0  0  0  0  0
   -2.2660   20.2750   69.6920 O   0  0  0  0  0  0  0  0  0  0  0  0
   -2.1450   21.0010   68.5730 C   0  0  0  0  0  0  0  0  0  0  0  0
   -1.2980   20.9520   67.6960 O   0  0  0  0  0  0  0  0  0  0  0  0
  -10.3740   16.0480   66.1620 O   0  0  0  0  0  0  0  0  0  0  0  0
  -10.2890   14.7680   65.5160 C   0  0  0  0  0  0  0  0  0  0  0  0
  -10.1090   13.7230   66.4760 O   0  0  0  0  0  0  0  0  0  0  0  0
   -9.8970   12.4950   65.8800 C   0  0  0  0  0  0  0  0  0  0  0  0
   -8.8870   11.6980   66.2430 C   0  0  0  0  0  0  0  0  0  0  0  0
  -10.8240   12.0460   64.8080 C   0  0  0  0  0  0  0  0  0  0  0  0
   -7.9560   12.0560   67.1840 O   0  0  0  0  0  0  0  0  0  0  0  0
  -11.8850   13.0800   64.4980 C   0  0  0  0  0  0  0  0  0  0  0  0
  -10.7250   11.0010   64.1910 O   0  0  0  0  0  0  0  0  0  0  0  0
  -11.5370   14.5420   64.6670 C   0  0  0  0  0  0  0  0  0  0  0  0
  -13.0000   12.7360   64.1410 O   0  0  0  0  0  0  0  0  0  0  0  0
  -12.1670   15.4080   64.0770 O   0  0  0  0  0  0  0  0  0  0  0  0
  -13.1440   15.3810   73.5240 C   0  0  0  0  0  0  0  0  0  0  0  0
  -12.2500   15.1570   74.6250 O   0  0  0  0  0  0  0  0  0  0  0  0
  -12.6360   16.5000   74.2720 O   0  0  0  0  0  0  0  0  0  0  0  0
  1 37  1  0  0  0  0
  1  2  2  0  0  0  0
  1  6  1  0  0  0  0
  2  3  1  0  0  0  0
  2 16  1  0  0  0  0
  3  4  1  0  0  0  0
  4  5  2  0  0  0  0
  4 15  1  0  0  0  0
  5  6  1  0  0  0  0
  5  7  1  0  0  0  0
  7  8  1  0  0  0  0
  7 13  1  0  0  0  0
  8  9  1  0  0  0  0
  9 10  2  0  0  0  0
  9 11  1  0  0  0  0
 11 12  1  0  0  0  0
 12 13  1  0  0  0  0
 13 14  2  0  0  0  0
 14 15  1  0  0  0  0
 14 49  1  0  0  0  0
 16 17  1  0  0  0  0
 16 21  1  0  0  0  0
 17 18  1  0  0  0  0
 18 19  1  0  0  0  0
 19 20  1  0  0  0  0
 20 21  2  0  0  0  0
 20 22  1  0  0  0  0
 21 23  1  0  0  0  0
 22 25  2  0  0  0  0
 23 24  2  0  0  0  0
 24 25  1  0  0  0  0
 24 26  1  0  0  0  0
 25 27  1  0  0  0  0
 26 29  1  0  0  0  0
 26 31  2  0  0  0  0
 27 28  1  0  0  0  0
 28 29  1  0  0  0  0
 28 32  1  0  0  0  0
 29 30  2  0  0  0  0
 32 33  1  0  0  0  0
 32 34  1  0  0  0  0
 32 35  1  0  0  0  0
 34 35  1  0  0  0  0
 35 36  2  0  0  0  0
 37 38  1  0  0  0  0
 38 39  1  0  0  0  0
 38 46  1  0  0  0  0
 39 40  1  0  0  0  0
 40 41  2  0  0  0  0
 40 42  1  0  0  0  0
 41 43  1  0  0  0  0
 42 44  1  0  0  0  0
 42 45  2  0  0  0  0
 44 46  1  0  0  0  0
 44 47  2  0  0  0  0
 46 48  2  0  0  0  0
 49 50  1  0  0  0  0
 49 51  1  0  0  0  0
 50 51  1  0  0  0  0
M  END
