
 OpenBabel11242001383D

 54 62  0  0  1  0  0  0  0  0999 V2000
  -10.1910   15.2140   67.2550 C   0  0  0  0  0  0  0  0  0  0  0  0
  -10.3720   16.4300   67.8140 C   0  0  0  0  0  0  0  0  0  0  0  0
  -11.1460   16.6570   68.9400 O   0  0  0  0  0  0  0  0  0  0  0  0
  -11.7030   15.5880   69.6010 C   0  0  0  0  0  0  0  0  0  0  0  0
  -11.5060   14.2900   69.1880 C   0  0  0  0  0  0  0  0  0  0  0  0
  -10.7570   13.9860   67.9320 C   0  0  0  0  0  0  0  0  0  0  0  0
  -12.0590   13.2870   69.9800 C   0  0  0  0  0  0  0  0  0  0  0  0
  -11.8550   11.9710   69.5770 O   0  0  0  0  0  0  0  0  0  0  0  0
  -12.3470   10.9400   70.3420 C   0  0  0  0  0  0  0  0  0  0  0  0
  -12.1510    9.7310   69.9600 N   0  0  0  0  0  0  0  0  0  0  0  0
  -13.0130   11.2020   71.4790 O   0  0  0  0  0  0  0  0  0  0  0  0
  -13.1990   12.4490   71.9500 C   0  0  0  0  0  0  0  0  0  0  0  0
  -13.6770   12.6390   73.0610 O   0  0  0  0  0  0  0  0  0  0  0  0
  -12.7660   13.5750   71.1250 C   0  0  0  0  0  0  0  0  0  0  0  0
  -12.9750   14.9180   71.4610 C   0  0  0  0  0  0  0  0  0  0  0  0
  -12.4230   15.9100   70.6910 N   0  0  0  0  0  0  0  0  0  0  0  0
   -9.7980   17.6830   67.2920 C   0  0  0  0  0  0  0  0  0  0  0  0
  -10.5910   18.4770   66.4730 C   0  0  0  0  0  0  0  0  0  0  0  0
  -10.1530   19.6700   66.0600 N   0  0  0  0  0  0  0  0  0  0  0  0
  -10.9540   20.4330   65.2920 F   0  0  0  0  0  0  0  0  0  0  0  0
   -8.9650   20.1470   66.3870 N   0  0  0  0  0  0  0  0  0  0  0  0
   -8.1570   19.4330   67.1810 C   0  0  0  0  0  0  0  0  0  0  0  0
   -8.5290   18.1720   67.6780 C   0  0  0  0  0  0  0  0  0  0  0  0
   -6.9100   19.9550   67.5380 C   0  0  0  0  0  0  0  0  0  0  0  0
   -7.6280   17.4930   68.5380 C   0  0  0  0  0  0  0  0  0  0  0  0
   -6.3890   18.0580   68.8880 C   0  0  0  0  0  0  0  0  0  0  0  0
   -5.4870   17.3560   69.8080 C   0  0  0  0  0  0  0  0  0  0  0  0
   -6.0170   19.2890   68.3820 C   0  0  0  0  0  0  0  0  0  0  0  0
   -5.7980   16.2830   70.2970 O   0  0  0  0  0  0  0  0  0  0  0  0
   -4.1650   18.0190   70.1150 C   0  0  0  0  0  0  0  0  0  0  0  0
   -3.2310   17.3650   70.5520 O   0  0  0  0  0  0  0  0  0  0  0  0
   -4.1340   19.5090   69.8540 C   0  0  0  0  0  0  0  0  0  0  0  0
   -4.8410   19.9230   68.6720 O   0  0  0  0  0  0  0  0  0  0  0  0
   -6.5690   21.1680   67.0700 F   0  0  0  0  0  0  0  0  0  0  0  0
   -4.5380   20.2900   71.0780 C   0  0  0  0  0  0  0  0  0  0  0  0
   -5.9270   20.6330   71.2000 O   0  0  0  0  0  0  0  0  0  0  0  0
   -3.9150   19.9040   72.3130 O   0  0  0  0  0  0  0  0  0  0  0  0
   -3.5900   21.1210   71.8260 C   0  0  0  0  0  0  0  0  0  0  0  0
   -2.5210   21.5920   71.5260 O   0  0  0  0  0  0  0  0  0  0  0  0
   -9.4830   15.0760   66.0640 O   0  0  0  0  0  0  0  0  0  0  0  0
   -9.9770   14.1680   65.0500 C   0  0  0  0  0  0  0  0  0  0  0  0
   -9.9540   12.8240   65.5130 O   0  0  0  0  0  0  0  0  0  0  0  0
  -10.3400   11.8860   64.5700 C   0  0  0  0  0  0  0  0  0  0  0  0
   -9.6830   10.7300   64.4040 C   0  0  0  0  0  0  0  0  0  0  0  0
  -11.5360   12.1050   63.7120 C   0  0  0  0  0  0  0  0  0  0  0  0
   -8.5390   10.4100   65.0860 O   0  0  0  0  0  0  0  0  0  0  0  0
  -11.9670   13.5480   63.5960 C   0  0  0  0  0  0  0  0  0  0  0  0
  -12.1230   11.2160   63.1190 O   0  0  0  0  0  0  0  0  0  0  0  0
  -11.3050   14.6090   64.4290 C   0  0  0  0  0  0  0  0  0  0  0  0
  -12.8300   13.8800   62.7980 O   0  0  0  0  0  0  0  0  0  0  0  0
  -11.8160   15.7120   64.5830 O   0  0  0  0  0  0  0  0  0  0  0  0
  -13.7760   15.3720   72.6600 C   0  0  0  0  0  0  0  0  0  0  0  0
  -13.1140   15.3210   73.9390 O   0  0  0  0  0  0  0  0  0  0  0  0
  -13.3940   16.5880   73.3220 O   0  0  0  0  0  0  0  0  0  0  0  0
  1 40  1  0  0  0  0
  1  2  2  0  0  0  0
  1  6  1  0  0  0  0
  2  3  1  0  0  0  0
  2 17  1  0  0  0  0
  3  4  1  0  0  0  0
  4  5  2  0  0  0  0
  4 16  1  0  0  0  0
  5  6  1  0  0  0  0
  5  7  1  0  0  0  0
  7  8  1  0  0  0  0
  7 14  2  0  0  0  0
  8  9  1  0  0  0  0
  9 10  2  0  0  0  0
  9 11  1  0  0  0  0
 11 12  1  0  0  0  0
 12 13  2  0  0  0  0
 12 14  1  0  0  0  0
 14 15  1  0  0  0  0
 15 16  2  0  0  0  0
 15 52  1  0  0  0  0
 17 18  2  0  0  0  0
 17 23  1  0  0  0  0
 18 19  1  0  0  0  0
 19 20  1  0  0  0  0
 19 21  2  0  0  0  0
 21 22  1  0  0  0  0
 22 23  2  0  0  0  0
 22 24  1  0  0  0  0
 23 25  1  0  0  0  0
 24 28  2  0  0  0  0
 24 34  1  0  0  0  0
 25 26  2  0  0  0  0
 26 27  1  0  0  0  0
 26 28  1  0  0  0  0
 27 29  2  0  0  0  0
 27 30  1  0  0  0  0
 28 33  1  0  0  0  0
 30 31  2  0  0  0  0
 30 32  1  0  0  0  0
 32 33  1  0  0  0  0
 32 35  1  0  0  0  0
 35 36  1  0  0  0  0
 35 37  1  0  0  0  0
 35 38  1  0  0  0  0
 37 38  1  0  0  0  0
 38 39  2  0  0  0  0
 40 41  1  0  0  0  0
 41 42  1  0  0  0  0
 41 49  1  0  0  0  0
 42 43  1  0  0  0  0
 43 44  2  0  0  0  0
 43 45  1  0  0  0  0
 44 46  1  0  0  0  0
 45 47  1  0  0  0  0
 45 48  2  0  0  0  0
 47 49  1  0  0  0  0
 47 50  2  0  0  0  0
 49 51  2  0  0  0  0
 52 53  1  0  0  0  0
 52 54  1  0  0  0  0
 53 54  1  0  0  0  0
M  CHG  1  19   1
M  END