
 OpenBabel11242001133D

 53 62  0  0  1  0  0  0  0  0999 V2000
  -10.2850   15.2980   67.5950 C   0  0  0  0  0  0  0  0  0  0  0  0
  -10.6100   16.5390   68.0150 C   0  0  0  0  0  0  0  0  0  0  0  0
  -11.4480   16.7840   69.0890 O   0  0  0  0  0  0  0  0  0  0  0  0
  -11.9560   15.7210   69.8130 C   0  0  0  0  0  0  0  0  0  0  0  0
  -11.6980   14.4460   69.4830 C   0  0  0  0  0  0  0  0  0  0  0  0
  -10.8530   14.0800   68.2990 C   0  0  0  0  0  0  0  0  0  0  0  0
  -12.2370   13.3800   70.3420 C   0  0  0  0  0  0  0  0  0  0  0  0
  -11.9850   12.1120   69.9580 N   0  0  0  0  0  0  0  0  0  0  0  0
  -12.4440   11.1440   70.7540 C   0  0  0  0  0  0  0  0  0  0  0  0
  -12.1920    9.8390   70.3900 N   0  0  0  0  0  0  0  0  0  0  0  0
  -13.1490   11.3460   71.8680 N   0  0  0  0  0  0  0  0  0  0  0  0
  -13.3810   12.6220   72.2210 C   0  0  0  0  0  0  0  0  0  0  0  0
  -12.9280   13.7010   71.4970 C   0  0  0  0  0  0  0  0  0  0  0  0
  -13.1250   15.1220   71.9420 C   0  0  0  0  0  0  0  0  0  0  0  0
  -12.7250   16.0560   70.8930 N   0  0  0  0  0  0  0  0  0  0  0  0
  -10.0620   17.7740   67.4270 C   0  0  0  0  0  0  0  0  0  0  0  0
  -10.8730   18.4700   66.5360 C   0  0  0  0  0  0  0  0  0  0  0  0
  -10.4100   19.5430   65.8920 N   0  0  0  0  0  0  0  0  0  0  0  0
  -11.2090   20.1690   65.0070 F   0  0  0  0  0  0  0  0  0  0  0  0
   -9.1820   19.9970   66.0630 N   0  0  0  0  0  0  0  0  0  0  0  0
   -8.3580   19.3790   66.9180 C   0  0  0  0  0  0  0  0  0  0  0  0
   -8.7460   18.2380   67.6420 C   0  0  0  0  0  0  0  0  0  0  0  0
   -7.0640   19.8750   67.0960 C   0  0  0  0  0  0  0  0  0  0  0  0
   -7.8040   17.6420   68.5270 C   0  0  0  0  0  0  0  0  0  0  0  0
   -6.5130   18.1750   68.6820 C   0  0  0  0  0  0  0  0  0  0  0  0
   -6.1360   19.2920   67.9620 C   0  0  0  0  0  0  0  0  0  0  0  0
   -5.5590   17.5710   69.6220 C   0  0  0  0  0  0  0  0  0  0  0  0
   -4.9110   19.8930   68.0580 O   0  0  0  0  0  0  0  0  0  0  0  0
   -3.8760   19.1730   68.7680 C   0  0  0  0  0  0  0  0  0  0  0  0
   -4.2930   18.3430   69.9070 C   0  0  0  0  0  0  0  0  0  0  0  0
   -2.8150   18.6660   68.0000 O   0  0  0  0  0  0  0  0  0  0  0  0
   -2.5190   19.8080   68.8710 C   0  0  0  0  0  0  0  0  0  0  0  0
   -3.7140   18.3030   70.9760 O   0  0  0  0  0  0  0  0  0  0  0  0
   -2.6380   21.1680   68.2830 O   0  0  0  0  0  0  0  0  0  0  0  0
   -1.4830   20.5570   68.2260 C   0  0  0  0  0  0  0  0  0  0  0  0
   -0.3570   20.8910   68.5380 O   0  0  0  0  0  0  0  0  0  0  0  0
   -5.7890   16.4980   70.1560 O   0  0  0  0  0  0  0  0  0  0  0  0
   -6.6960   20.9630   66.4000 F   0  0  0  0  0  0  0  0  0  0  0  0
   -9.4990   15.1430   66.4680 O   0  0  0  0  0  0  0  0  0  0  0  0
   -9.8000   14.1060   65.5240 C   0  0  0  0  0  0  0  0  0  0  0  0
   -9.9730   12.8680   66.1940 O   0  0  0  0  0  0  0  0  0  0  0  0
  -10.3040   11.8170   65.3540 C   0  0  0  0  0  0  0  0  0  0  0  0
   -9.8440   10.5800   65.5870 C   0  0  0  0  0  0  0  0  0  0  0  0
  -11.1890   12.0300   64.1690 C   0  0  0  0  0  0  0  0  0  0  0  0
   -9.0090   10.2820   66.6350 O   0  0  0  0  0  0  0  0  0  0  0  0
  -11.6630   13.4630   63.9850 C   0  0  0  0  0  0  0  0  0  0  0  0
  -11.4740   11.1590   63.3660 O   0  0  0  0  0  0  0  0  0  0  0  0
  -11.0800   14.5520   64.8480 C   0  0  0  0  0  0  0  0  0  0  0  0
  -12.4430   13.7680   63.0970 O   0  0  0  0  0  0  0  0  0  0  0  0
  -11.5490   15.6840   64.8910 O   0  0  0  0  0  0  0  0  0  0  0  0
  -12.3160   15.3970   73.1800 C   0  0  0  0  0  0  0  0  0  0  0  0
  -11.9800   16.7740   73.3860 O   0  0  0  0  0  0  0  0  0  0  0  0
  -12.9880   16.1330   74.2020 O   0  0  0  0  0  0  0  0  0  0  0  0
  1 39  1  0  0  0  0
  1  2  2  0  0  0  0
  1  6  1  0  0  0  0
  2  3  1  0  0  0  0
  2 16  1  0  0  0  0
  3  4  1  0  0  0  0
  4  5  2  0  0  0  0
  4 15  1  0  0  0  0
  5  6  1  0  0  0  0
  5  7  1  0  0  0  0
  7  8  2  0  0  0  0
  7 13  1  0  0  0  0
  8  9  1  0  0  0  0
  9 10  1  0  0  0  0
  9 11  2  0  0  0  0
 11 12  1  0  0  0  0
 12 13  2  0  0  0  0
 13 14  1  0  0  0  0
 14 15  1  0  0  0  0
 14 51  1  0  0  0  0
 16 17  2  0  0  0  0
 16 22  1  0  0  0  0
 17 18  1  0  0  0  0
 18 19  1  0  0  0  0
 18 20  2  0  0  0  0
 20 21  1  0  0  0  0
 21 22  2  0  0  0  0
 21 23  1  0  0  0  0
 22 24  1  0  0  0  0
 23 26  2  0  0  0  0
 23 38  1  0  0  0  0
 24 25  2  0  0  0  0
 25 26  1  0  0  0  0
 25 27  1  0  0  0  0
 26 28  1  0  0  0  0
 27 30  1  0  0  0  0
 27 37  2  0  0  0  0
 28 29  1  0  0  0  0
 29 30  1  0  0  0  0
 29 31  1  0  0  0  0
 29 32  1  0  0  0  0
 30 33  2  0  0  0  0
 31 32  1  0  0  0  0
 32 34  1  0  0  0  0
 32 35  1  0  0  0  0
 34 35  1  0  0  0  0
 35 36  2  0  0  0  0
 39 40  1  0  0  0  0
 40 41  1  0  0  0  0
 40 48  1  0  0  0  0
 41 42  1  0  0  0  0
 42 43  2  0  0  0  0
 42 44  1  0  0  0  0
 43 45  1  0  0  0  0
 44 46  1  0  0  0  0
 44 47  2  0  0  0  0
 46 48  1  0  0  0  0
 46 49  2  0  0  0  0
 48 50  2  0  0  0  0
 51 52  1  0  0  0  0
 51 53  1  0  0  0  0
 52 53  1  0  0  0  0
M  CHG  1  18   1
M  END