
 OpenBabel11242002183D

 55 62  0  0  1  0  0  0  0  0999 V2000
  -11.3100   15.9530   67.1740 C   0  0  0  0  0  0  0  0  0  0  0  0
  -10.7640   16.9720   67.8800 C   0  0  0  0  0  0  0  0  0  0  0  0
  -10.9410   17.0710   69.2670 O   0  0  0  0  0  0  0  0  0  0  0  0
  -11.6020   16.0780   69.9840 C   0  0  0  0  0  0  0  0  0  0  0  0
  -12.0320   14.9640   69.3700 C   0  0  0  0  0  0  0  0  0  0  0  0
  -11.9980   14.8090   67.8790 C   0  0  0  0  0  0  0  0  0  0  0  0
  -12.5770   13.7960   70.1360 C   0  0  0  0  0  0  0  0  0  0  0  0
  -11.6210   12.7600   69.9970 O   0  0  0  0  0  0  0  0  0  0  0  0
  -11.8520   11.6060   70.6740 C   0  0  0  0  0  0  0  0  0  0  0  0
  -11.2080   10.5880   70.4300 O   0  0  0  0  0  0  0  0  0  0  0  0
  -12.8320   11.6480   71.5990 O   0  0  0  0  0  0  0  0  0  0  0  0
  -13.1530   12.8490   72.2890 C   0  0  0  0  0  0  0  0  0  0  0  0
  -12.6660   14.0710   71.5880 C   0  0  0  0  0  0  0  0  0  0  0  0
  -12.3050   15.2510   72.1400 C   0  0  0  0  0  0  0  0  0  0  0  0
  -11.7740   16.2610   71.3430 O   0  0  0  0  0  0  0  0  0  0  0  0
  -14.5560   12.9850   72.3380 O   0  0  0  0  0  0  0  0  0  0  0  0
   -9.9360   18.0750   67.2630 C   0  0  0  0  0  0  0  0  0  0  0  0
  -10.4750   18.8160   66.2050 C   0  0  0  0  0  0  0  0  0  0  0  0
   -9.8140   19.8370   65.6530 N   0  0  0  0  0  0  0  0  0  0  0  0
  -10.3820   20.5080   64.6320 F   0  0  0  0  0  0  0  0  0  0  0  0
   -8.6230   20.2150   66.0660 N   0  0  0  0  0  0  0  0  0  0  0  0
   -8.0100   19.5300   67.0310 C   0  0  0  0  0  0  0  0  0  0  0  0
   -8.6070   18.4080   67.6450 C   0  0  0  0  0  0  0  0  0  0  0  0
   -6.7380   19.9430   67.4460 C   0  0  0  0  0  0  0  0  0  0  0  0
   -7.8180   17.6940   68.5790 C   0  0  0  0  0  0  0  0  0  0  0  0
   -6.5110   18.0730   68.8900 C   0  0  0  0  0  0  0  0  0  0  0  0
   -5.6760   17.1910   69.7170 C   0  0  0  0  0  0  0  0  0  0  0  0
   -5.9890   19.2500   68.3940 C   0  0  0  0  0  0  0  0  0  0  0  0
   -6.0850   16.0980   70.0760 O   0  0  0  0  0  0  0  0  0  0  0  0
   -4.2730   17.7000   69.9590 C   0  0  0  0  0  0  0  0  0  0  0  0
   -3.3290   16.9250   69.9730 O   0  0  0  0  0  0  0  0  0  0  0  0
   -4.1840   19.2090   69.9670 C   0  0  0  0  0  0  0  0  0  0  0  0
   -4.7840   19.7680   68.7790 O   0  0  0  0  0  0  0  0  0  0  0  0
   -6.2160   21.0540   66.8990 F   0  0  0  0  0  0  0  0  0  0  0  0
   -4.7810   19.7720   71.2810 C   0  0  0  0  0  0  0  0  0  0  0  0
   -6.0700   20.3500   71.0350 O   0  0  0  0  0  0  0  0  0  0  0  0
   -4.9790   18.7180   72.1970 O   0  0  0  0  0  0  0  0  0  0  0  0
   -3.9050   20.8850   71.8960 C   0  0  0  0  0  0  0  0  0  0  0  0
   -4.4570   21.9170   72.2970 O   0  0  0  0  0  0  0  0  0  0  0  0
   -2.4160   20.7070   71.9630 C   0  0  0  0  0  0  0  0  0  0  0  0
  -11.1840   15.8890   65.7940 O   0  0  0  0  0  0  0  0  0  0  0  0
  -10.8430   14.6340   65.1680 C   0  0  0  0  0  0  0  0  0  0  0  0
  -10.5700   13.6270   66.1370 O   0  0  0  0  0  0  0  0  0  0  0  0
  -10.0950   12.4590   65.5530 C   0  0  0  0  0  0  0  0  0  0  0  0
   -9.1520   11.7380   66.1650 C   0  0  0  0  0  0  0  0  0  0  0  0
  -10.6340   12.0010   64.2370 C   0  0  0  0  0  0  0  0  0  0  0  0
   -8.6060   12.1190   67.3660 O   0  0  0  0  0  0  0  0  0  0  0  0
  -11.8720   12.7750   63.8100 C   0  0  0  0  0  0  0  0  0  0  0  0
  -10.1020   11.1680   63.5270 O   0  0  0  0  0  0  0  0  0  0  0  0
  -12.0450   14.1810   64.3550 C   0  0  0  0  0  0  0  0  0  0  0  0
  -12.7120   12.2810   63.0820 O   0  0  0  0  0  0  0  0  0  0  0  0
  -13.0540   14.8510   64.1750 O   0  0  0  0  0  0  0  0  0  0  0  0
  -12.4240   15.5700   73.5860 C   0  0  0  0  0  0  0  0  0  0  0  0
  -12.1960   16.9090   74.0540 O   0  0  0  0  0  0  0  0  0  0  0  0
  -13.5250   16.3530   74.0730 O   0  0  0  0  0  0  0  0  0  0  0  0
  1 41  1  0  0  0  0
  1  2  2  0  0  0  0
  1  6  1  0  0  0  0
  2  3  1  0  0  0  0
  2 17  1  0  0  0  0
  3  4  1  0  0  0  0
  4  5  2  0  0  0  0
  4 15  1  0  0  0  0
  5  6  1  0  0  0  0
  5  7  1  0  0  0  0
  7  8  1  0  0  0  0
  7 13  1  0  0  0  0
  8  9  1  0  0  0  0
  9 10  2  0  0  0  0
  9 11  1  0  0  0  0
 11 12  1  0  0  0  0
 12 13  1  0  0  0  0
 12 16  1  0  0  0  0
 13 14  2  0  0  0  0
 14 15  1  0  0  0  0
 14 53  1  0  0  0  0
 17 18  2  0  0  0  0
 17 23  1  0  0  0  0
 18 19  1  0  0  0  0
 19 20  1  0  0  0  0
 19 21  2  0  0  0  0
 21 22  1  0  0  0  0
 22 23  2  0  0  0  0
 22 24  1  0  0  0  0
 23 25  1  0  0  0  0
 24 28  2  0  0  0  0
 24 34  1  0  0  0  0
 25 26  2  0  0  0  0
 26 27  1  0  0  0  0
 26 28  1  0  0  0  0
 27 29  2  0  0  0  0
 27 30  1  0  0  0  0
 28 33  1  0  0  0  0
 30 31  2  0  0  0  0
 30 32  1  0  0  0  0
 32 33  1  0  0  0  0
 32 35  1  0  0  0  0
 35 38  1  0  0  0  0
 35 36  1  0  0  0  0
 35 37  1  0  0  0  0
 38 39  2  0  0  0  0
 38 40  1  0  0  0  0
 41 42  1  0  0  0  0
 42 43  1  0  0  0  0
 42 50  1  0  0  0  0
 43 44  1  0  0  0  0
 44 45  2  0  0  0  0
 44 46  1  0  0  0  0
 45 47  1  0  0  0  0
 46 48  1  0  0  0  0
 46 49  2  0  0  0  0
 48 50  1  0  0  0  0
 48 51  2  0  0  0  0
 50 52  2  0  0  0  0
 53 54  1  0  0  0  0
 53 55  1  0  0  0  0
 54 55  1  0  0  0  0
M  CHG  2  15   1  19   1
M  END