
 OpenBabel10242017183D

 52 59  0  0  1  0  0  0  0  0999 V2000
  -10.6720   15.9100   67.2500 C   0  0  0  0  0  0  0  0  0  0  0  0
  -10.4530   17.0800   67.9090 C   0  0  0  0  0  0  0  0  0  0  0  0
  -10.7780   17.2290   69.2690 O   0  0  0  0  0  0  0  0  0  0  0  0
  -11.3310   16.1650   69.9790 C   0  0  0  0  0  0  0  0  0  0  0  0
  -11.5020   14.9650   69.4100 C   0  0  0  0  0  0  0  0  0  0  0  0
  -11.2000   14.7010   67.9840 C   0  0  0  0  0  0  0  0  0  0  0  0
  -12.0750   13.8520   70.2170 C   0  0  0  0  0  0  0  0  0  0  0  0
  -12.2060   12.6730   69.7060 N   0  0  0  0  0  0  0  0  0  0  0  0
  -12.7570   11.6630   70.4670 C   0  0  0  0  0  0  0  0  0  0  0  0
  -12.8600   10.5530   69.9620 O   0  0  0  0  0  0  0  0  0  0  0  0
  -13.2080   11.8470   71.7590 N   0  0  0  0  0  0  0  0  0  0  0  0
  -13.0910   13.0130   72.2960 C   0  0  0  0  0  0  0  0  0  0  0  0
  -12.4970   14.1600   71.6000 C   0  0  0  0  0  0  0  0  0  0  0  0
  -12.3230   15.4070   72.0810 C   0  0  0  0  0  0  0  0  0  0  0  0
  -11.7110   16.3840   71.2840 N   0  0  0  0  0  0  0  0  0  0  0  0
   -9.7610   18.2660   67.2930 C   0  0  0  0  0  0  0  0  0  0  0  0
  -10.5280   18.9290   66.3970 N   0  0  0  0  0  0  0  0  0  0  0  0
   -9.9930   19.9710   65.7630 C   0  0  0  0  0  0  0  0  0  0  0  0
   -8.7400   20.4070   65.9020 N   0  0  0  0  0  0  0  0  0  0  0  0
   -7.9660   19.7530   66.7670 C   0  0  0  0  0  0  0  0  0  0  0  0
   -8.4170   18.6570   67.5290 C   0  0  0  0  0  0  0  0  0  0  0  0
   -6.6510   20.1970   66.9000 C   0  0  0  0  0  0  0  0  0  0  0  0
   -7.4950   18.0740   68.4390 C   0  0  0  0  0  0  0  0  0  0  0  0
   -6.1720   18.5370   68.5420 C   0  0  0  0  0  0  0  0  0  0  0  0
   -5.7430   19.6030   67.7780 C   0  0  0  0  0  0  0  0  0  0  0  0
   -5.2330   17.8580   69.4340 C   0  0  0  0  0  0  0  0  0  0  0  0
   -4.4840   20.1220   67.7860 O   0  0  0  0  0  0  0  0  0  0  0  0
   -3.5810   19.7120   68.8130 C   0  0  0  0  0  0  0  0  0  0  0  0
   -3.8350   18.4110   69.5400 C   0  0  0  0  0  0  0  0  0  0  0  0
   -2.9970   17.8330   70.2210 O   0  0  0  0  0  0  0  0  0  0  0  0
   -5.5640   16.8610   70.0570 O   0  0  0  0  0  0  0  0  0  0  0  0
   -3.4340   20.8240   69.8080 C   0  0  0  0  0  0  0  0  0  0  0  0
   -4.6080   21.4290   70.2470 F   0  0  0  0  0  0  0  0  0  0  0  0
   -2.4320   20.6340   70.8260 O   0  0  0  0  0  0  0  0  0  0  0  0
   -2.1950   21.5740   69.9040 C   0  0  0  0  0  0  0  0  0  0  0  0
   -1.2600   21.7250   69.1450 O   0  0  0  0  0  0  0  0  0  0  0  0
  -10.3490   15.7390   65.9050 O   0  0  0  0  0  0  0  0  0  0  0  0
  -10.3630   14.4010   65.3950 C   0  0  0  0  0  0  0  0  0  0  0  0
  -10.0080   13.4680   66.4180 O   0  0  0  0  0  0  0  0  0  0  0  0
   -9.8190   12.1870   65.9320 C   0  0  0  0  0  0  0  0  0  0  0  0
   -8.8080   11.4280   66.3670 C   0  0  0  0  0  0  0  0  0  0  0  0
  -10.7780   11.6330   64.9410 C   0  0  0  0  0  0  0  0  0  0  0  0
   -7.8920   11.8800   67.2820 O   0  0  0  0  0  0  0  0  0  0  0  0
  -11.9500   12.5600   64.6900 C   0  0  0  0  0  0  0  0  0  0  0  0
  -10.6410   10.5750   64.3530 O   0  0  0  0  0  0  0  0  0  0  0  0
  -11.7350   14.0540   64.8230 C   0  0  0  0  0  0  0  0  0  0  0  0
  -13.0470   12.1020   64.4160 O   0  0  0  0  0  0  0  0  0  0  0  0
  -12.5720   14.8460   64.4130 O   0  0  0  0  0  0  0  0  0  0  0  0
  -12.7940   15.7740   73.4730 C   0  0  0  0  0  0  0  0  0  0  0  0
  -12.5320   14.7940   74.3710 F   0  0  0  0  0  0  0  0  0  0  0  0
  -12.1850   16.9010   73.9190 F   0  0  0  0  0  0  0  0  0  0  0  0
  -14.1300   16.0040   73.5050 F   0  0  0  0  0  0  0  0  0  0  0  0
  1 37  1  0  0  0  0
  1  2  2  0  0  0  0
  1  6  1  0  0  0  0
  2  3  1  0  0  0  0
  2 16  1  0  0  0  0
  3  4  1  0  0  0  0
  4  5  2  0  0  0  0
  4 15  1  0  0  0  0
  5  6  1  0  0  0  0
  5  7  1  0  0  0  0
  7  8  2  0  0  0  0
  7 13  1  0  0  0  0
  8  9  1  0  0  0  0
  9 10  2  0  0  0  0
  9 11  1  0  0  0  0
 11 12  2  0  0  0  0
 12 13  1  0  0  0  0
 13 14  2  0  0  0  0
 14 15  1  0  0  0  0
 14 49  1  0  0  0  0
 16 17  2  0  0  0  0
 16 21  1  0  0  0  0
 17 18  1  0  0  0  0
 18 19  2  0  0  0  0
 19 20  1  0  0  0  0
 20 21  2  0  0  0  0
 20 22  1  0  0  0  0
 21 23  1  0  0  0  0
 22 25  2  0  0  0  0
 23 24  2  0  0  0  0
 24 25  1  0  0  0  0
 24 26  1  0  0  0  0
 25 27  1  0  0  0  0
 26 29  1  0  0  0  0
 26 31  2  0  0  0  0
 27 28  1  0  0  0  0
 28 29  1  0  0  0  0
 28 32  1  0  0  0  0
 29 30  2  0  0  0  0
 32 33  1  0  0  0  0
 32 34  1  0  0  0  0
 32 35  1  0  0  0  0
 34 35  1  0  0  0  0
 35 36  2  0  0  0  0
 37 38  1  0  0  0  0
 38 39  1  0  0  0  0
 38 46  1  0  0  0  0
 39 40  1  0  0  0  0
 40 41  2  0  0  0  0
 40 42  1  0  0  0  0
 41 43  1  0  0  0  0
 42 44  1  0  0  0  0
 42 45  2  0  0  0  0
 44 46  1  0  0  0  0
 44 47  2  0  0  0  0
 46 48  2  0  0  0  0
 49 50  1  0  0  0  0
 49 51  1  0  0  0  0
 49 52  1  0  0  0  0
M  END
