
 OpenBabel10242009503D

 87101  0  0  1  0  0  0  0  0999 V2000
  -11.6180   12.0440   65.0260 O   0  0  0  0  0  0  0  0  0  0  0  0
  -11.1240   11.3050   66.1680 C   0  0  0  0  0  0  0  0  0  0  0  0
  -11.9530   11.5890   67.4430 C   0  0  0  0  0  0  0  0  0  0  0  0
  -11.7560   12.9440   67.9060 O   0  0  0  0  0  0  0  0  0  0  0  0
  -10.5590   13.5780   67.7400 C   0  0  0  0  0  0  0  0  0  0  0  0
   -9.4830   13.0060   67.0790 C   0  0  0  0  0  0  0  0  0  0  0  0
   -9.6500   11.7020   66.3570 C   0  0  0  0  0  0  0  0  0  0  0  0
   -9.0200   11.8430   65.0570 O   0  0  0  0  0  0  0  0  0  0  0  0
   -8.2500   13.6830   67.1030 C   0  0  0  0  0  0  0  0  0  0  0  0
   -8.0610   14.9760   67.6510 C   0  0  0  0  0  0  0  0  0  0  0  0
   -9.2110   15.6490   68.1320 C   0  0  0  0  0  0  0  0  0  0  0  0
  -10.4160   14.8840   68.2280 C   0  0  0  0  0  0  0  0  0  0  0  0
  -11.4940   15.4460   68.8130 F   0  0  0  0  0  0  0  0  0  0  0  0
   -9.0280   17.0120   68.4670 C   0  0  0  0  0  0  0  0  0  0  0  0
  -10.3150   17.9890   69.0880 Cl  0  0  0  0  0  0  0  0  0  0  0  0
   -7.7940   17.6950   68.2890 C   0  0  0  0  0  0  0  0  0  0  0  0
   -6.6050   17.0370   67.9410 C   0  0  0  0  0  0  0  0  0  0  0  0
   -6.7890   15.6420   67.7300 C   0  0  0  0  0  0  0  0  0  0  0  0
   -5.3970   14.5880   67.8070 Cl  0  0  0  0  0  0  0  0  0  0  0  0
  -11.8060   10.4990   68.5750 C   0  0  0  0  0  0  0  0  0  0  0  0
  -12.1590   11.1210   69.9520 C   0  0  0  0  0  0  0  0  0  0  0  0
  -12.1060   10.1190   71.1020 C   0  0  0  0  0  0  0  0  0  0  0  0
  -10.8490    9.3050   71.1230 C   0  0  0  0  0  0  0  0  0  0  0  0
  -10.0810    9.1380   69.9800 C   0  0  0  0  0  0  0  0  0  0  0  0
  -10.4630    8.6550   72.3150 C   0  0  0  0  0  0  0  0  0  0  0  0
  -10.3640    9.8830   68.6710 C   0  0  0  0  0  0  0  0  0  0  0  0
   -8.9530    8.2930   70.0520 C   0  0  0  0  0  0  0  0  0  0  0  0
  -10.0070    9.0040   67.4410 C   0  0  0  0  0  0  0  0  0  0  0  0
  -11.1260    8.3370   67.0110 F   0  0  0  0  0  0  0  0  0  0  0  0
   -8.8930    7.9700   67.6420 C   0  0  0  0  0  0  0  0  0  0  0  0
   -8.0290    8.3210   68.8490 C   0  0  0  0  0  0  0  0  0  0  0  0
   -6.7970    7.4360   69.0060 C   0  0  0  0  0  0  0  0  0  0  0  0
   -7.1920    6.0890   69.5740 C   0  0  0  0  0  0  0  0  0  0  0  0
   -7.7680    6.2580   70.9860 C   0  0  0  0  0  0  0  0  0  0  0  0
   -8.7070    7.4540   71.1800 C   0  0  0  0  0  0  0  0  0  0  0  0
   -8.6340    4.7280   71.3720 Cl  0  0  0  0  0  0  0  0  0  0  0  0
   -9.3970    7.7190   72.3990 C   0  0  0  0  0  0  0  0  0  0  0  0
   -9.0890    7.0830   73.7350 C   0  0  0  0  0  0  0  0  0  0  0  0
   -7.8910    7.3610   74.4350 C   0  0  0  0  0  0  0  0  0  0  0  0
   -7.5310    6.6960   75.6370 C   0  0  0  0  0  0  0  0  0  0  0  0
   -6.0580    6.6390   76.0450 C   0  0  0  0  0  0  0  0  0  0  0  0
   -8.4790    5.9030   76.2890 C   0  0  0  0  0  0  0  0  0  0  0  0
   -5.3280    5.7490   75.0190 C   0  0  0  0  0  0  0  0  0  0  0  0
   -5.7850    6.0840   77.4920 C   0  0  0  0  0  0  0  0  0  0  0  0
   -4.0230    5.5160   75.2560 C   0  0  0  0  0  0  0  0  0  0  0  0
   -3.7750    4.7370   76.5400 C   0  0  0  0  0  0  0  0  0  0  0  0
   -4.2790    5.6500   77.7000 C   0  0  0  0  0  0  0  0  0  0  0  0
   -2.3060    4.3320   76.6440 C   0  0  0  0  0  0  0  0  0  0  0  0
   -4.0280    5.0250   79.0750 C   0  0  0  0  0  0  0  0  0  0  0  0
   -6.7680    4.9490   77.8490 C   0  0  0  0  0  0  0  0  0  0  0  0
   -8.2330    5.3610   77.6750 C   0  0  0  0  0  0  0  0  0  0  0  0
   -8.6720    6.3960   78.7190 C   0  0  0  0  0  0  0  0  0  0  0  0
   -9.6600    5.5990   75.6170 C   0  0  0  0  0  0  0  0  0  0  0  0
   -9.8950    6.1010   74.3350 C   0  0  0  0  0  0  0  0  0  0  0  0
  -10.9030    5.5310   73.6630 F   0  0  0  0  0  0  0  0  0  0  0  0
   -5.2800   17.8030   67.8090 C   0  0  0  0  0  0  0  0  0  0  0  0
   -4.9480   18.4880   66.6050 C   0  0  0  0  0  0  0  0  0  0  0  0
   -3.6240   19.0560   66.2660 C   0  0  0  0  0  0  0  0  0  0  0  0
   -2.8870   19.5050   64.9560 C   0  0  0  0  0  0  0  0  0  0  0  0
   -2.8760   19.2430   67.4530 N   0  0  0  0  0  0  0  0  0  0  0  0
   -1.5460   19.9260   65.0470 C   0  0  0  0  0  0  0  0  0  0  0  0
   -0.6410   19.8420   63.9560 N   0  0  0  0  0  0  0  0  0  0  0  0
   -1.0510   20.1610   66.3190 C   0  0  0  0  0  0  0  0  0  0  0  0
   -1.7140   19.8890   67.4410 N   0  0  0  0  0  0  0  0  0  0  0  0
   -3.2790   18.7690   68.6870 N   0  0  0  0  0  0  0  0  0  0  0  0
   -4.3140   17.8990   68.8340 C   0  0  0  0  0  0  0  0  0  0  0  0
   -2.4100   19.3010   70.0890 Cl  0  0  0  0  0  0  0  0  0  0  0  0
   -4.3230   17.0450   70.0780 C   0  0  0  0  0  0  0  0  0  0  0  0
   -3.4780   19.5090   63.4230 N   0  0  0  0  0  0  0  0  0  0  0  0
   -3.8910   20.6920   62.7370 N   0  0  0  0  0  0  0  0  0  0  0  0
   -4.3810   22.1180   63.5900 Cl  0  0  0  0  0  0  0  0  0  0  0  0
   -4.2460   20.6930   61.3850 C   0  0  0  0  0  0  0  0  0  0  0  0
   -4.4490   19.5180   60.6070 C   0  0  0  0  0  0  0  0  0  0  0  0
   -4.2080   18.3470   61.3050 C   0  0  0  0  0  0  0  0  0  0  0  0
   -4.9030   19.4090   59.2420 N   0  0  0  0  0  0  0  0  0  0  0  0
   -3.6230   18.3590   62.6600 C   0  0  0  0  0  0  0  0  0  0  0  0
   -4.5400   17.2050   60.6930 N   0  0  0  0  0  0  0  0  0  0  0  0
   -3.1990   17.1490   63.1830 N   0  0  0  0  0  0  0  0  0  0  0  0
   -5.1220   17.0830   59.4770 N   0  0  0  0  0  0  0  0  0  0  0  0
   -5.3040   18.1750   58.6560 C   0  0  0  0  0  0  0  0  0  0  0  0
   -5.5270   15.4670   59.0810 Cl  0  0  0  0  0  0  0  0  0  0  0  0
   -5.8050   18.2110   57.3690 N   0  0  0  0  0  0  0  0  0  0  0  0
   -5.7810   19.3370   56.6240 C   0  0  0  0  0  0  0  0  0  0  0  0
   -6.5380   16.8750   56.5750 Cl  0  0  0  0  0  0  0  0  0  0  0  0
   -5.2970   20.4760   57.1380 N   0  0  0  0  0  0  0  0  0  0  0  0
   -4.9170   20.5300   58.4440 N   0  0  0  0  0  0  0  0  0  0  0  0
   -5.1870   21.6950   56.2560 C   0  0  0  0  0  0  0  0  0  0  0  0
  1  2  1  0  0  0  0
  2  3  1  0  0  0  0
  2  7  1  0  0  0  0
  3  4  1  0  0  0  0
  3 20  1  0  0  0  0
  4  5  1  0  0  0  0
  5  6  2  0  0  0  0
  5 12  1  0  0  0  0
  6  7  1  0  0  0  0
  6  9  1  0  0  0  0
  7  8  1  0  0  0  0
  9 10  2  0  0  0  0
 10 11  1  0  0  0  0
 10 18  1  0  0  0  0
 11 12  2  0  0  0  0
 11 14  1  0  0  0  0
 12 13  1  0  0  0  0
 14 15  1  0  0  0  0
 14 16  2  0  0  0  0
 16 17  1  0  0  0  0
 17 18  2  0  0  0  0
 17 56  1  0  0  0  0
 18 19  1  0  0  0  0
 20 21  1  0  0  0  0
 20 26  1  0  0  0  0
 21 22  1  0  0  0  0
 22 23  1  0  0  0  0
 23 24  2  0  0  0  0
 23 25  1  0  0  0  0
 24 26  1  0  0  0  0
 24 27  1  0  0  0  0
 25 37  2  0  0  0  0
 26 28  1  0  0  0  0
 27 31  1  0  0  0  0
 27 35  2  0  0  0  0
 28 29  1  0  0  0  0
 28 30  1  0  0  0  0
 30 31  1  0  0  0  0
 31 32  1  0  0  0  0
 32 33  1  0  0  0  0
 33 34  1  0  0  0  0
 34 35  1  0  0  0  0
 34 36  1  0  0  0  0
 35 37  1  0  0  0  0
 37 38  1  0  0  0  0
 38 39  2  0  0  0  0
 38 54  1  0  0  0  0
 39 40  1  0  0  0  0
 40 41  1  0  0  0  0
 40 42  2  0  0  0  0
 41 43  1  0  0  0  0
 41 44  1  0  0  0  0
 42 51  1  0  0  0  0
 42 53  1  0  0  0  0
 43 45  2  0  0  0  0
 44 47  1  0  0  0  0
 44 50  1  0  0  0  0
 45 46  1  0  0  0  0
 46 47  1  0  0  0  0
 46 48  1  0  0  0  0
 47 49  1  0  0  0  0
 50 51  1  0  0  0  0
 51 52  1  0  0  0  0
 53 54  2  0  0  0  0
 54 55  1  0  0  0  0
 56 57  2  0  0  0  0
 56 66  1  0  0  0  0
 57 58  1  0  0  0  0
 58 59  2  0  0  0  0
 58 60  1  0  0  0  0
 59 61  1  0  0  0  0
 59 69  1  0  0  0  0
 60 64  2  0  0  0  0
 60 65  1  0  0  0  0
 61 62  1  0  0  0  0
 61 63  2  0  0  0  0
 63 64  1  0  0  0  0
 65 66  2  0  0  0  0
 65 67  1  0  0  0  0
 66 68  1  0  0  0  0
 69 70  2  0  0  0  0
 69 76  1  0  0  0  0
 70 71  1  0  0  0  0
 70 72  1  0  0  0  0
 72 73  2  0  0  0  0
 73 74  1  0  0  0  0
 73 75  1  0  0  0  0
 74 76  2  0  0  0  0
 74 77  1  0  0  0  0
 75 80  2  0  0  0  0
 75 86  1  0  0  0  0
 76 78  1  0  0  0  0
 77 79  2  0  0  0  0
 79 80  1  0  0  0  0
 79 81  1  0  0  0  0
 80 82  1  0  0  0  0
 82 83  2  0  0  0  0
 82 84  1  0  0  0  0
 83 85  1  0  0  0  0
 85 86  2  0  0  0  0
 85 87  1  0  0  0  0
M  CHG  8  60   1  65   1  69   1  70   1  79   1  75   1  85   1  82   1
M  END