
 OpenBabel11232002453D

 54 62  0  0  1  0  0  0  0  0999 V2000
  -10.6890   15.5340   67.2040 C   0  0  0  0  0  0  0  0  0  0  0  0
  -10.3540   16.6240   67.9340 C   0  0  0  0  0  0  0  0  0  0  0  0
  -10.5780   16.6620   69.3220 O   0  0  0  0  0  0  0  0  0  0  0  0
  -11.3050   15.6530   69.9620 C   0  0  0  0  0  0  0  0  0  0  0  0
  -11.6650   14.5440   69.2980 C   0  0  0  0  0  0  0  0  0  0  0  0
  -11.3520   14.3460   67.8560 C   0  0  0  0  0  0  0  0  0  0  0  0
  -12.4350   13.4310   69.9410 C   0  0  0  0  0  0  0  0  0  0  0  0
  -11.6580   12.2490   69.8640 O   0  0  0  0  0  0  0  0  0  0  0  0
  -12.2990   11.1280   70.3020 C   0  0  0  0  0  0  0  0  0  0  0  0
  -11.9670   10.0100   69.9520 O   0  0  0  0  0  0  0  0  0  0  0  0
  -13.3700   11.3790   71.1040 O   0  0  0  0  0  0  0  0  0  0  0  0
  -13.2640   12.4640   72.0150 C   0  0  0  0  0  0  0  0  0  0  0  0
  -12.6580   13.6730   71.3840 C   0  0  0  0  0  0  0  0  0  0  0  0
  -12.2770   14.8140   72.0070 C   0  0  0  0  0  0  0  0  0  0  0  0
  -11.6360   15.8230   71.2910 O   0  0  0  0  0  0  0  0  0  0  0  0
  -14.5910   12.8270   72.4660 N   0  0  0  0  0  0  0  0  0  0  0  0
   -9.7550   17.8780   67.3430 C   0  0  0  0  0  0  0  0  0  0  0  0
  -10.4960   18.6280   66.4230 C   0  0  0  0  0  0  0  0  0  0  0  0
  -10.0360   19.7750   65.9140 N   0  0  0  0  0  0  0  0  0  0  0  0
  -10.7970   20.4500   65.0310 F   0  0  0  0  0  0  0  0  0  0  0  0
   -8.8650   20.2750   66.2410 N   0  0  0  0  0  0  0  0  0  0  0  0
   -8.0830   19.6190   67.0970 C   0  0  0  0  0  0  0  0  0  0  0  0
   -8.4650   18.3850   67.6660 C   0  0  0  0  0  0  0  0  0  0  0  0
   -6.8510   20.1830   67.4450 C   0  0  0  0  0  0  0  0  0  0  0  0
   -7.5250   17.7580   68.5170 C   0  0  0  0  0  0  0  0  0  0  0  0
   -6.2840   18.3310   68.8150 C   0  0  0  0  0  0  0  0  0  0  0  0
   -5.3260   17.5810   69.6310 C   0  0  0  0  0  0  0  0  0  0  0  0
   -5.9540   19.5720   68.3210 C   0  0  0  0  0  0  0  0  0  0  0  0
   -5.5620   16.4160   69.9240 O   0  0  0  0  0  0  0  0  0  0  0  0
   -4.0600   18.3050   70.0330 C   0  0  0  0  0  0  0  0  0  0  0  0
   -3.1390   17.6930   70.5480 O   0  0  0  0  0  0  0  0  0  0  0  0
   -4.1070   19.8050   69.8130 C   0  0  0  0  0  0  0  0  0  0  0  0
   -4.7950   20.2230   68.6220 O   0  0  0  0  0  0  0  0  0  0  0  0
   -6.5220   21.3710   66.9140 F   0  0  0  0  0  0  0  0  0  0  0  0
   -4.6840   20.4850   71.0130 C   0  0  0  0  0  0  0  0  0  0  0  0
   -6.1340   20.5830   71.0700 O   0  0  0  0  0  0  0  0  0  0  0  0
   -4.0420   20.1770   72.2440 O   0  0  0  0  0  0  0  0  0  0  0  0
   -3.9580   21.4650   71.8340 C   0  0  0  0  0  0  0  0  0  0  0  0
   -4.3870   22.4650   72.3480 O   0  0  0  0  0  0  0  0  0  0  0  0
  -10.5510   15.5140   65.8230 O   0  0  0  0  0  0  0  0  0  0  0  0
  -10.4610   14.2320   65.1600 C   0  0  0  0  0  0  0  0  0  0  0  0
  -10.0230   13.2010   66.0310 O   0  0  0  0  0  0  0  0  0  0  0  0
   -9.8220   11.9770   65.4220 C   0  0  0  0  0  0  0  0  0  0  0  0
   -8.9780   11.0930   65.9630 C   0  0  0  0  0  0  0  0  0  0  0  0
  -10.5940   11.6070   64.2030 C   0  0  0  0  0  0  0  0  0  0  0  0
   -8.2710   11.3620   67.1100 O   0  0  0  0  0  0  0  0  0  0  0  0
  -11.8200   12.4860   63.9980 C   0  0  0  0  0  0  0  0  0  0  0  0
  -10.2410   10.7700   63.3950 O   0  0  0  0  0  0  0  0  0  0  0  0
  -11.8410   13.8350   64.6860 C   0  0  0  0  0  0  0  0  0  0  0  0
  -12.7300   12.1610   63.2580 O   0  0  0  0  0  0  0  0  0  0  0  0
  -12.8470   14.5190   64.8000 O   0  0  0  0  0  0  0  0  0  0  0  0
  -12.4580   15.0670   73.4510 C   0  0  0  0  0  0  0  0  0  0  0  0
  -13.3710   16.1030   73.8120 N   0  0  0  0  0  0  0  0  0  0  0  0
  -12.1630   16.3750   73.9160 N   0  0  0  0  0  0  0  0  0  0  0  0
  1 40  1  0  0  0  0
  1  2  2  0  0  0  0
  1  6  1  0  0  0  0
  2  3  1  0  0  0  0
  2 17  1  0  0  0  0
  3  4  1  0  0  0  0
  4  5  2  0  0  0  0
  4 15  1  0  0  0  0
  5  6  1  0  0  0  0
  5  7  1  0  0  0  0
  7  8  1  0  0  0  0
  7 13  1  0  0  0  0
  8  9  1  0  0  0  0
  9 10  2  0  0  0  0
  9 11  1  0  0  0  0
 11 12  1  0  0  0  0
 12 13  1  0  0  0  0
 12 16  1  0  0  0  0
 13 14  2  0  0  0  0
 14 15  1  0  0  0  0
 14 52  1  0  0  0  0
 17 18  2  0  0  0  0
 17 23  1  0  0  0  0
 18 19  1  0  0  0  0
 19 20  1  0  0  0  0
 19 21  2  0  0  0  0
 21 22  1  0  0  0  0
 22 23  2  0  0  0  0
 22 24  1  0  0  0  0
 23 25  1  0  0  0  0
 24 28  2  0  0  0  0
 24 34  1  0  0  0  0
 25 26  2  0  0  0  0
 26 27  1  0  0  0  0
 26 28  1  0  0  0  0
 27 29  2  0  0  0  0
 27 30  1  0  0  0  0
 28 33  1  0  0  0  0
 30 31  2  0  0  0  0
 30 32  1  0  0  0  0
 32 33  1  0  0  0  0
 32 35  1  0  0  0  0
 35 36  1  0  0  0  0
 35 37  1  0  0  0  0
 35 38  1  0  0  0  0
 37 38  1  0  0  0  0
 38 39  2  0  0  0  0
 40 41  1  0  0  0  0
 41 42  1  0  0  0  0
 41 49  1  0  0  0  0
 42 43  1  0  0  0  0
 43 44  2  0  0  0  0
 43 45  1  0  0  0  0
 44 46  1  0  0  0  0
 45 47  1  0  0  0  0
 45 48  2  0  0  0  0
 47 49  1  0  0  0  0
 47 50  2  0  0  0  0
 49 51  2  0  0  0  0
 52 53  1  0  0  0  0
 52 54  1  0  0  0  0
 53 54  2  0  0  0  0
M  CHG  2  15   1  19   1
M  END