
 OpenBabel11212021223D

 53 61  0  0  1  0  0  0  0  0999 V2000
  -11.0640   15.6710   66.9780 C   0  0  0  0  0  0  0  0  0  0  0  0
  -10.7800   16.7650   67.7180 C   0  0  0  0  0  0  0  0  0  0  0  0
  -11.1830   16.9160   69.0460 O   0  0  0  0  0  0  0  0  0  0  0  0
  -11.7780   15.8440   69.6990 C   0  0  0  0  0  0  0  0  0  0  0  0
  -11.9690   14.6630   69.0870 C   0  0  0  0  0  0  0  0  0  0  0  0
  -11.6690   14.4580   67.6420 C   0  0  0  0  0  0  0  0  0  0  0  0
  -12.5190   13.4820   69.8410 C   0  0  0  0  0  0  0  0  0  0  0  0
  -11.5130   12.4770   69.8210 O   0  0  0  0  0  0  0  0  0  0  0  0
  -11.7640   11.3130   70.4680 C   0  0  0  0  0  0  0  0  0  0  0  0
  -11.1270   10.3000   70.2240 O   0  0  0  0  0  0  0  0  0  0  0  0
  -12.7810   11.3340   71.3660 O   0  0  0  0  0  0  0  0  0  0  0  0
  -13.3050   12.5370   71.9600 C   0  0  0  0  0  0  0  0  0  0  0  0
  -12.8430   13.7630   71.2640 C   0  0  0  0  0  0  0  0  0  0  0  0
  -12.6880   14.9930   71.8010 C   0  0  0  0  0  0  0  0  0  0  0  0
  -12.1570   16.0070   71.0100 N   0  0  0  0  0  0  0  0  0  0  0  0
   -9.9950   17.9050   67.2200 C   0  0  0  0  0  0  0  0  0  0  0  0
  -10.5780   18.7460   66.2840 C   0  0  0  0  0  0  0  0  0  0  0  0
   -9.9160   19.8150   65.8380 N   0  0  0  0  0  0  0  0  0  0  0  0
  -10.4950   20.6090   64.9180 F   0  0  0  0  0  0  0  0  0  0  0  0
   -8.7130   20.1380   66.2710 N   0  0  0  0  0  0  0  0  0  0  0  0
   -8.0800   19.3690   67.1700 C   0  0  0  0  0  0  0  0  0  0  0  0
   -8.6880   18.2060   67.6750 C   0  0  0  0  0  0  0  0  0  0  0  0
   -6.7910   19.7080   67.6290 C   0  0  0  0  0  0  0  0  0  0  0  0
   -7.9580   17.4080   68.5950 C   0  0  0  0  0  0  0  0  0  0  0  0
   -6.6570   17.7540   69.0040 C   0  0  0  0  0  0  0  0  0  0  0  0
   -5.9000   16.8560   69.8840 C   0  0  0  0  0  0  0  0  0  0  0  0
   -6.0710   18.9180   68.5460 C   0  0  0  0  0  0  0  0  0  0  0  0
   -6.4100   15.8420   70.3340 O   0  0  0  0  0  0  0  0  0  0  0  0
   -4.4630   17.2140   70.1730 C   0  0  0  0  0  0  0  0  0  0  0  0
   -3.6810   16.3720   70.5860 O   0  0  0  0  0  0  0  0  0  0  0  0
   -4.1220   18.6670   69.9580 C   0  0  0  0  0  0  0  0  0  0  0  0
   -4.8230   19.3360   68.9040 O   0  0  0  0  0  0  0  0  0  0  0  0
   -5.9840   21.3190   66.9710 Br  0  0  0  0  0  0  0  0  0  0  0  0
   -4.2410   19.4520   71.2270 C   0  0  0  0  0  0  0  0  0  0  0  0
   -5.2800   19.0460   72.1520 O   0  0  0  0  0  0  0  0  0  0  0  0
   -3.0190   19.8390   71.8600 O   0  0  0  0  0  0  0  0  0  0  0  0
   -3.7520   20.8200   71.3040 C   0  0  0  0  0  0  0  0  0  0  0  0
   -3.4750   21.6260   70.4470 O   0  0  0  0  0  0  0  0  0  0  0  0
  -10.7320   15.5930   65.6260 O   0  0  0  0  0  0  0  0  0  0  0  0
  -10.4610   14.2650   65.1200 C   0  0  0  0  0  0  0  0  0  0  0  0
  -10.0290   13.4100   66.1820 O   0  0  0  0  0  0  0  0  0  0  0  0
   -9.6790   12.1310   65.7860 C   0  0  0  0  0  0  0  0  0  0  0  0
   -8.6870   11.4620   66.3870 C   0  0  0  0  0  0  0  0  0  0  0  0
  -10.4310   11.4200   64.7140 C   0  0  0  0  0  0  0  0  0  0  0  0
   -7.9210   11.9940   67.3920 O   0  0  0  0  0  0  0  0  0  0  0  0
  -11.5410   12.2350   64.0830 C   0  0  0  0  0  0  0  0  0  0  0  0
  -10.1820   10.2820   64.3520 O   0  0  0  0  0  0  0  0  0  0  0  0
  -11.7090   13.6870   64.4720 C   0  0  0  0  0  0  0  0  0  0  0  0
  -12.2840   11.7330   63.2560 O   0  0  0  0  0  0  0  0  0  0  0  0
  -12.7470   14.2940   64.2570 O   0  0  0  0  0  0  0  0  0  0  0  0
  -13.0510   15.3480   73.1930 C   0  0  0  0  0  0  0  0  0  0  0  0
  -12.1810   15.0640   74.3020 O   0  0  0  0  0  0  0  0  0  0  0  0
  -12.3990   16.4260   73.8850 O   0  0  0  0  0  0  0  0  0  0  0  0
  1 39  1  0  0  0  0
  1  2  2  0  0  0  0
  1  6  1  0  0  0  0
  2  3  1  0  0  0  0
  2 16  1  0  0  0  0
  3  4  1  0  0  0  0
  4  5  2  0  0  0  0
  4 15  1  0  0  0  0
  5  6  1  0  0  0  0
  5  7  1  0  0  0  0
  7  8  1  0  0  0  0
  7 13  1  0  0  0  0
  8  9  1  0  0  0  0
  9 10  2  0  0  0  0
  9 11  1  0  0  0  0
 11 12  1  0  0  0  0
 12 13  1  0  0  0  0
 13 14  2  0  0  0  0
 14 15  1  0  0  0  0
 14 51  1  0  0  0  0
 16 17  2  0  0  0  0
 16 22  1  0  0  0  0
 17 18  1  0  0  0  0
 18 19  1  0  0  0  0
 18 20  2  0  0  0  0
 20 21  1  0  0  0  0
 21 22  2  0  0  0  0
 21 23  1  0  0  0  0
 22 24  1  0  0  0  0
 23 27  2  0  0  0  0
 23 33  1  0  0  0  0
 24 25  2  0  0  0  0
 25 26  1  0  0  0  0
 25 27  1  0  0  0  0
 26 28  2  0  0  0  0
 26 29  1  0  0  0  0
 27 32  1  0  0  0  0
 29 30  2  0  0  0  0
 29 31  1  0  0  0  0
 31 32  1  0  0  0  0
 31 34  1  0  0  0  0
 34 35  1  0  0  0  0
 34 36  1  0  0  0  0
 34 37  1  0  0  0  0
 36 37  1  0  0  0  0
 37 38  2  0  0  0  0
 39 40  1  0  0  0  0
 40 41  1  0  0  0  0
 40 48  1  0  0  0  0
 41 42  1  0  0  0  0
 42 43  2  0  0  0  0
 42 44  1  0  0  0  0
 43 45  1  0  0  0  0
 44 46  1  0  0  0  0
 44 47  2  0  0  0  0
 46 48  1  0  0  0  0
 46 49  2  0  0  0  0
 48 50  2  0  0  0  0
 51 52  1  0  0  0  0
 51 53  1  0  0  0  0
 52 53  1  0  0  0  0
M  CHG  1  18   1
M  END