
 OpenBabel11272002453D

 54 62  0  0  1  0  0  0  0  0999 V2000
  -11.0000   15.7550   67.0260 C   0  0  0  0  0  0  0  0  0  0  0  0
  -10.5870   16.8130   67.7560 C   0  0  0  0  0  0  0  0  0  0  0  0
  -10.7770   16.9170   69.1330 O   0  0  0  0  0  0  0  0  0  0  0  0
  -11.3990   15.8830   69.8200 C   0  0  0  0  0  0  0  0  0  0  0  0
  -11.8390   14.7800   69.1870 C   0  0  0  0  0  0  0  0  0  0  0  0
  -11.6800   14.5960   67.7020 C   0  0  0  0  0  0  0  0  0  0  0  0
  -12.5630   13.6850   69.9170 C   0  0  0  0  0  0  0  0  0  0  0  0
  -11.8540   12.4780   69.7650 O   0  0  0  0  0  0  0  0  0  0  0  0
  -12.4410   11.3890   70.3370 C   0  0  0  0  0  0  0  0  0  0  0  0
  -12.2410   10.2670   69.9040 O   0  0  0  0  0  0  0  0  0  0  0  0
  -13.2460   11.6240   71.4090 O   0  0  0  0  0  0  0  0  0  0  0  0
  -13.2810   12.8140   72.0350 C   0  0  0  0  0  0  0  0  0  0  0  0
  -13.8840   12.9890   73.0830 O   0  0  0  0  0  0  0  0  0  0  0  0
  -12.6290   13.9380   71.3650 C   0  0  0  0  0  0  0  0  0  0  0  0
  -12.1650   15.0620   71.9590 C   0  0  0  0  0  0  0  0  0  0  0  0
  -11.5600   16.0430   71.1770 O   0  0  0  0  0  0  0  0  0  0  0  0
   -9.8600   17.9570   67.1720 C   0  0  0  0  0  0  0  0  0  0  0  0
  -10.6100   18.7080   66.3330 N   0  0  0  0  0  0  0  0  0  0  0  0
  -10.0270   19.7990   65.7990 C   0  0  0  0  0  0  0  0  0  0  0  0
  -10.7810   20.5810   65.0160 F   0  0  0  0  0  0  0  0  0  0  0  0
   -8.7120   20.1580   66.0140 C   0  0  0  0  0  0  0  0  0  0  0  0
   -7.9310   19.3690   66.8630 C   0  0  0  0  0  0  0  0  0  0  0  0
   -8.5040   18.2280   67.4700 C   0  0  0  0  0  0  0  0  0  0  0  0
   -6.6000   19.7170   67.1520 C   0  0  0  0  0  0  0  0  0  0  0  0
   -7.6900   17.4530   68.3300 C   0  0  0  0  0  0  0  0  0  0  0  0
   -6.3760   17.8440   68.6220 C   0  0  0  0  0  0  0  0  0  0  0  0
   -5.5540   17.0430   69.5360 C   0  0  0  0  0  0  0  0  0  0  0  0
   -5.8390   18.9960   68.0710 C   0  0  0  0  0  0  0  0  0  0  0  0
   -5.9150   15.9420   69.9200 O   0  0  0  0  0  0  0  0  0  0  0  0
   -4.2530   17.6580   70.0000 C   0  0  0  0  0  0  0  0  0  0  0  0
   -3.4490   17.0000   70.6420 O   0  0  0  0  0  0  0  0  0  0  0  0
   -4.1220   19.1350   69.7000 C   0  0  0  0  0  0  0  0  0  0  0  0
   -4.5970   19.4720   68.3830 O   0  0  0  0  0  0  0  0  0  0  0  0
   -6.0620   20.7990   66.5680 F   0  0  0  0  0  0  0  0  0  0  0  0
   -4.7450   20.0250   70.7470 C   0  0  0  0  0  0  0  0  0  0  0  0
   -5.7630   20.9380   70.2920 O   0  0  0  0  0  0  0  0  0  0  0  0
   -5.0680   19.4110   71.9890 O   0  0  0  0  0  0  0  0  0  0  0  0
   -4.0810   20.3430   72.0140 C   0  0  0  0  0  0  0  0  0  0  0  0
   -2.9610   20.1980   72.4360 O   0  0  0  0  0  0  0  0  0  0  0  0
  -10.7180   15.6660   65.6660 O   0  0  0  0  0  0  0  0  0  0  0  0
   -9.9270   14.5540   65.2090 C   0  0  0  0  0  0  0  0  0  0  0  0
   -9.0030   14.1730   66.2120 O   0  0  0  0  0  0  0  0  0  0  0  0
   -9.0870   12.9030   66.7430 C   0  0  0  0  0  0  0  0  0  0  0  0
   -8.5450   12.6460   67.9380 C   0  0  0  0  0  0  0  0  0  0  0  0
   -9.7080   11.7630   65.9990 C   0  0  0  0  0  0  0  0  0  0  0  0
   -7.9560   13.6190   68.7020 O   0  0  0  0  0  0  0  0  0  0  0  0
  -10.2310   12.0890   64.6290 C   0  0  0  0  0  0  0  0  0  0  0  0
   -9.7330   10.6310   66.4780 O   0  0  0  0  0  0  0  0  0  0  0  0
  -10.8390   13.4660   64.6260 C   0  0  0  0  0  0  0  0  0  0  0  0
  -11.1060   11.1430   64.1770 F   0  0  0  0  0  0  0  0  0  0  0  0
  -11.9190   13.7240   64.0930 O   0  0  0  0  0  0  0  0  0  0  0  0
  -12.2270   15.3830   73.4130 C   0  0  0  0  0  0  0  0  0  0  0  0
  -12.0050   16.7340   73.8600 O   0  0  0  0  0  0  0  0  0  0  0  0
  -13.3220   16.1590   73.9310 O   0  0  0  0  0  0  0  0  0  0  0  0
  1 40  1  0  0  0  0
  1  2  2  0  0  0  0
  1  6  1  0  0  0  0
  2  3  1  0  0  0  0
  2 17  1  0  0  0  0
  3  4  1  0  0  0  0
  4  5  2  0  0  0  0
  4 16  1  0  0  0  0
  5  6  1  0  0  0  0
  5  7  1  0  0  0  0
  7  8  1  0  0  0  0
  7 14  1  0  0  0  0
  8  9  1  0  0  0  0
  9 10  2  0  0  0  0
  9 11  1  0  0  0  0
 11 12  1  0  0  0  0
 12 13  2  0  0  0  0
 12 14  1  0  0  0  0
 14 15  2  0  0  0  0
 15 16  1  0  0  0  0
 15 52  1  0  0  0  0
 17 18  2  0  0  0  0
 17 23  1  0  0  0  0
 18 19  1  0  0  0  0
 19 20  1  0  0  0  0
 19 21  2  0  0  0  0
 21 22  1  0  0  0  0
 22 23  2  0  0  0  0
 22 24  1  0  0  0  0
 23 25  1  0  0  0  0
 24 28  2  0  0  0  0
 24 34  1  0  0  0  0
 25 26  2  0  0  0  0
 26 27  1  0  0  0  0
 26 28  1  0  0  0  0
 27 29  2  0  0  0  0
 27 30  1  0  0  0  0
 28 33  1  0  0  0  0
 30 31  2  0  0  0  0
 30 32  1  0  0  0  0
 32 33  1  0  0  0  0
 32 35  1  0  0  0  0
 35 36  1  0  0  0  0
 35 37  1  0  0  0  0
 35 38  1  0  0  0  0
 37 38  1  0  0  0  0
 38 39  2  0  0  0  0
 40 41  1  0  0  0  0
 41 42  1  0  0  0  0
 41 49  1  0  0  0  0
 42 43  1  0  0  0  0
 43 44  2  0  0  0  0
 43 45  1  0  0  0  0
 44 46  1  0  0  0  0
 45 47  1  0  0  0  0
 45 48  2  0  0  0  0
 47 49  1  0  0  0  0
 47 50  1  0  0  0  0
 49 51  2  0  0  0  0
 52 53  1  0  0  0  0
 52 54  1  0  0  0  0
 53 54  1  0  0  0  0
M  CHG  1  16   1
M  END