
 OpenBabel11262000503D

 54 62  0  0  1  0  0  0  0  0999 V2000
  -11.1040   15.7720   67.1000 C   0  0  0  0  0  0  0  0  0  0  0  0
  -10.8620   16.8780   67.8350 C   0  0  0  0  0  0  0  0  0  0  0  0
  -11.2300   16.9900   69.1960 O   0  0  0  0  0  0  0  0  0  0  0  0
  -11.8220   15.8820   69.8560 C   0  0  0  0  0  0  0  0  0  0  0  0
  -12.0190   14.7260   69.1890 C   0  0  0  0  0  0  0  0  0  0  0  0
  -11.7350   14.5590   67.7280 C   0  0  0  0  0  0  0  0  0  0  0  0
  -12.5920   13.4940   69.8440 C   0  0  0  0  0  0  0  0  0  0  0  0
  -11.6090   12.4780   69.7990 O   0  0  0  0  0  0  0  0  0  0  0  0
  -11.9040   11.3430   70.4760 C   0  0  0  0  0  0  0  0  0  0  0  0
  -11.2250   10.2860   70.2490 N   0  0  0  0  0  0  0  0  0  0  0  0
  -12.9080   11.3540   71.3800 O   0  0  0  0  0  0  0  0  0  0  0  0
  -13.4130   12.5040   71.8600 C   0  0  0  0  0  0  0  0  0  0  0  0
  -14.2910   12.5730   72.7060 O   0  0  0  0  0  0  0  0  0  0  0  0
  -12.8980   13.7300   71.2540 C   0  0  0  0  0  0  0  0  0  0  0  0
  -12.7430   14.9100   71.8860 C   0  0  0  0  0  0  0  0  0  0  0  0
  -12.1960   15.9960   71.1960 O   0  0  0  0  0  0  0  0  0  0  0  0
  -10.0940   18.0210   67.2500 C   0  0  0  0  0  0  0  0  0  0  0  0
  -10.7250   18.8160   66.2820 C   0  0  0  0  0  0  0  0  0  0  0  0
  -10.0870   19.8650   65.7550 N   0  0  0  0  0  0  0  0  0  0  0  0
  -10.6970   20.6050   64.8040 F   0  0  0  0  0  0  0  0  0  0  0  0
   -8.8630   20.1930   66.1160 N   0  0  0  0  0  0  0  0  0  0  0  0
   -8.2330   19.4570   67.0500 C   0  0  0  0  0  0  0  0  0  0  0  0
   -8.8230   18.3500   67.6510 N   0  0  0  0  0  0  0  0  0  0  0  0
   -6.9190   19.7900   67.4020 C   0  0  0  0  0  0  0  0  0  0  0  0
   -8.1190   17.6450   68.5820 C   0  0  0  0  0  0  0  0  0  0  0  0
   -6.8030   17.9760   68.9040 C   0  0  0  0  0  0  0  0  0  0  0  0
   -6.0620   17.1360   69.8270 C   0  0  0  0  0  0  0  0  0  0  0  0
   -6.1880   19.0590   68.3280 C   0  0  0  0  0  0  0  0  0  0  0  0
   -6.5540   16.0620   70.1320 O   0  0  0  0  0  0  0  0  0  0  0  0
   -4.7090   17.6210   70.2950 C   0  0  0  0  0  0  0  0  0  0  0  0
   -3.9970   16.8750   70.9450 O   0  0  0  0  0  0  0  0  0  0  0  0
   -4.3770   19.0530   69.9120 C   0  0  0  0  0  0  0  0  0  0  0  0
   -4.9220   19.4610   68.6330 O   0  0  0  0  0  0  0  0  0  0  0  0
   -6.3510   20.8540   66.8140 F   0  0  0  0  0  0  0  0  0  0  0  0
   -4.7220   20.0150   71.0260 C   0  0  0  0  0  0  0  0  0  0  0  0
   -6.1120   20.3200   71.2020 O   0  0  0  0  0  0  0  0  0  0  0  0
   -3.9550   19.9050   72.2230 O   0  0  0  0  0  0  0  0  0  0  0  0
   -3.7850   21.0360   71.5070 C   0  0  0  0  0  0  0  0  0  0  0  0
   -2.7930   21.4890   70.9760 O   0  0  0  0  0  0  0  0  0  0  0  0
  -10.7030   15.6910   65.7690 O   0  0  0  0  0  0  0  0  0  0  0  0
  -10.2640   14.3740   65.2810 C   0  0  0  0  0  0  0  0  0  0  0  0
  -10.1030   13.4800   66.3840 O   0  0  0  0  0  0  0  0  0  0  0  0
   -9.8460   12.1630   66.0390 C   0  0  0  0  0  0  0  0  0  0  0  0
   -9.1350   11.3660   66.8470 C   0  0  0  0  0  0  0  0  0  0  0  0
  -10.3640   11.5550   64.7690 C   0  0  0  0  0  0  0  0  0  0  0  0
   -8.5830   11.7860   68.0310 O   0  0  0  0  0  0  0  0  0  0  0  0
  -10.8520   12.5110   63.7070 C   0  0  0  0  0  0  0  0  0  0  0  0
  -10.3110   10.3440   64.5780 O   0  0  0  0  0  0  0  0  0  0  0  0
  -11.3040   13.8470   64.2820 C   0  0  0  0  0  0  0  0  0  0  0  0
  -11.9040   12.0100   62.9930 F   0  0  0  0  0  0  0  0  0  0  0  0
  -12.5930   13.7400   64.9200 O   0  0  0  0  0  0  0  0  0  0  0  0
  -13.0630   15.1350   73.3210 C   0  0  0  0  0  0  0  0  0  0  0  0
  -12.0240   15.4230   74.2650 O   0  0  0  0  0  0  0  0  0  0  0  0
  -12.9540   16.4550   73.8850 O   0  0  0  0  0  0  0  0  0  0  0  0
  1 40  1  0  0  0  0
  1  2  2  0  0  0  0
  1  6  1  0  0  0  0
  2  3  1  0  0  0  0
  2 17  1  0  0  0  0
  3  4  1  0  0  0  0
  4  5  2  0  0  0  0
  4 16  1  0  0  0  0
  5  6  1  0  0  0  0
  5  7  1  0  0  0  0
  7  8  1  0  0  0  0
  7 14  1  0  0  0  0
  8  9  1  0  0  0  0
  9 10  2  0  0  0  0
  9 11  1  0  0  0  0
 11 12  1  0  0  0  0
 12 13  2  0  0  0  0
 12 14  1  0  0  0  0
 14 15  2  0  0  0  0
 15 16  1  0  0  0  0
 15 52  1  0  0  0  0
 17 18  2  0  0  0  0
 17 23  1  0  0  0  0
 18 19  1  0  0  0  0
 19 20  1  0  0  0  0
 19 21  2  0  0  0  0
 21 22  1  0  0  0  0
 22 23  2  0  0  0  0
 22 24  1  0  0  0  0
 23 25  1  0  0  0  0
 24 28  2  0  0  0  0
 24 34  1  0  0  0  0
 25 26  2  0  0  0  0
 26 27  1  0  0  0  0
 26 28  1  0  0  0  0
 27 29  2  0  0  0  0
 27 30  1  0  0  0  0
 28 33  1  0  0  0  0
 30 31  2  0  0  0  0
 30 32  1  0  0  0  0
 32 33  1  0  0  0  0
 32 35  1  0  0  0  0
 35 36  1  0  0  0  0
 35 37  1  0  0  0  0
 35 38  1  0  0  0  0
 37 38  1  0  0  0  0
 38 39  2  0  0  0  0
 40 41  1  0  0  0  0
 41 42  1  0  0  0  0
 41 49  1  0  0  0  0
 42 43  1  0  0  0  0
 43 44  2  0  0  0  0
 43 45  1  0  0  0  0
 44 46  1  0  0  0  0
 45 47  1  0  0  0  0
 45 48  2  0  0  0  0
 47 49  1  0  0  0  0
 47 50  1  0  0  0  0
 49 51  1  0  0  0  0
 52 53  1  0  0  0  0
 52 54  1  0  0  0  0
 53 54  1  0  0  0  0
M  CHG  3  16   1  19   1  23   1
M  END