
 OpenBabel11242001213D

 54 63  0  0  1  0  0  0  0  0999 V2000
  -12.5400   11.1880   70.8110 C   0  0  0  0  0  0  0  0  0  0  0  0
  -13.2300   11.4170   71.9410 N   0  0  0  0  0  0  0  0  0  0  0  0
  -13.4290   12.7040   72.2750 C   0  0  0  0  0  0  0  0  0  0  0  0
  -12.9700   13.7670   71.5280 C   0  0  0  0  0  0  0  0  0  0  0  0
  -12.3130   13.4210   70.3610 C   0  0  0  0  0  0  0  0  0  0  0  0
  -12.0860   12.1490   69.9850 N   0  0  0  0  0  0  0  0  0  0  0  0
  -11.7900   14.4690   69.4780 C   0  0  0  0  0  0  0  0  0  0  0  0
  -12.0390   15.7540   69.7790 C   0  0  0  0  0  0  0  0  0  0  0  0
  -12.8020   16.1200   70.8590 N   0  0  0  0  0  0  0  0  0  0  0  0
  -13.1170   15.2020   71.9560 C   0  0  0  0  0  0  0  0  0  0  0  0
  -11.5240   16.7930   69.0250 O   0  0  0  0  0  0  0  0  0  0  0  0
  -10.6960   16.5060   67.9540 C   0  0  0  0  0  0  0  0  0  0  0  0
  -10.4200   15.2550   67.5370 C   0  0  0  0  0  0  0  0  0  0  0  0
  -10.9970   14.0670   68.2770 C   0  0  0  0  0  0  0  0  0  0  0  0
  -10.0870   17.7050   67.3750 C   0  0  0  0  0  0  0  0  0  0  0  0
  -10.8400   18.4090   66.4450 C   0  0  0  0  0  0  0  0  0  0  0  0
  -10.3200   19.4650   65.8160 N   0  0  0  0  0  0  0  0  0  0  0  0
  -11.0680   20.1200   64.9090 F   0  0  0  0  0  0  0  0  0  0  0  0
   -9.0840   19.8810   66.0310 N   0  0  0  0  0  0  0  0  0  0  0  0
   -8.3180   19.2480   66.9310 C   0  0  0  0  0  0  0  0  0  0  0  0
   -8.7800   18.1380   67.6550 C   0  0  0  0  0  0  0  0  0  0  0  0
   -7.0130   19.6900   67.1650 C   0  0  0  0  0  0  0  0  0  0  0  0
   -7.9270   17.5240   68.6050 C   0  0  0  0  0  0  0  0  0  0  0  0
   -6.6370   18.0190   68.8310 C   0  0  0  0  0  0  0  0  0  0  0  0
   -6.1670   19.0970   68.1060 C   0  0  0  0  0  0  0  0  0  0  0  0
   -5.7810   17.4250   69.8580 C   0  0  0  0  0  0  0  0  0  0  0  0
   -4.9130   19.6230   68.2380 O   0  0  0  0  0  0  0  0  0  0  0  0
   -4.0530   19.1210   69.2910 C   0  0  0  0  0  0  0  0  0  0  0  0
   -4.6340   18.2700   70.3400 C   0  0  0  0  0  0  0  0  0  0  0  0
   -2.7320   18.8100   68.9210 O   0  0  0  0  0  0  0  0  0  0  0  0
   -2.9290   20.0070   69.7410 C   0  0  0  0  0  0  0  0  0  0  0  0
   -4.2850   18.2890   71.5090 O   0  0  0  0  0  0  0  0  0  0  0  0
   -3.1050   21.3070   69.0240 O   0  0  0  0  0  0  0  0  0  0  0  0
   -1.9030   20.9390   69.3870 C   0  0  0  0  0  0  0  0  0  0  0  0
   -1.0110   21.4960   69.9870 O   0  0  0  0  0  0  0  0  0  0  0  0
   -6.0160   16.3270   70.3300 O   0  0  0  0  0  0  0  0  0  0  0  0
   -6.5550   20.7340   66.4570 F   0  0  0  0  0  0  0  0  0  0  0  0
   -9.5470   15.0380   66.4780 O   0  0  0  0  0  0  0  0  0  0  0  0
   -9.9340   13.9930   65.5690 C   0  0  0  0  0  0  0  0  0  0  0  0
  -10.2590   12.8020   66.2800 O   0  0  0  0  0  0  0  0  0  0  0  0
  -10.4960   11.7220   65.4480 C   0  0  0  0  0  0  0  0  0  0  0  0
  -10.1600   10.4850   65.8350 C   0  0  0  0  0  0  0  0  0  0  0  0
  -11.1470   11.9170   64.1160 C   0  0  0  0  0  0  0  0  0  0  0  0
   -9.5590   10.2330   67.0410 O   0  0  0  0  0  0  0  0  0  0  0  0
  -11.2050   11.0670   63.2460 O   0  0  0  0  0  0  0  0  0  0  0  0
  -11.6820   13.3240   63.9010 C   0  0  0  0  0  0  0  0  0  0  0  0
  -12.5210   13.5570   63.0450 O   0  0  0  0  0  0  0  0  0  0  0  0
  -11.1450   14.4380   64.7690 C   0  0  0  0  0  0  0  0  0  0  0  0
  -11.6420   15.5550   64.7820 O   0  0  0  0  0  0  0  0  0  0  0  0
  -12.2640   15.4680   73.1720 C   0  0  0  0  0  0  0  0  0  0  0  0
  -11.9020   16.8300   73.4150 O   0  0  0  0  0  0  0  0  0  0  0  0
  -12.8850   16.1740   74.2520 O   0  0  0  0  0  0  0  0  0  0  0  0
  -12.3130    9.8330   70.4910 N   0  0  0  0  0  0  0  0  0  0  0  0
  -11.3970    9.3180   71.1720 N   0  0  0  0  0  0  0  0  0  0  0  0
  1 53  1  0  0  0  0
  1  2  2  0  0  0  0
  1  6  1  0  0  0  0
  2  3  1  0  0  0  0
  3  4  2  0  0  0  0
  4  5  1  0  0  0  0
  4 10  1  0  0  0  0
  5  6  2  0  0  0  0
  5  7  1  0  0  0  0
  7  8  2  0  0  0  0
  7 14  1  0  0  0  0
  8  9  1  0  0  0  0
  8 11  1  0  0  0  0
  9 10  1  0  0  0  0
 10 50  1  0  0  0  0
 11 12  1  0  0  0  0
 12 13  2  0  0  0  0
 12 15  1  0  0  0  0
 13 14  1  0  0  0  0
 13 38  1  0  0  0  0
 15 16  2  0  0  0  0
 15 21  1  0  0  0  0
 16 17  1  0  0  0  0
 17 18  1  0  0  0  0
 17 19  2  0  0  0  0
 19 20  1  0  0  0  0
 20 21  2  0  0  0  0
 20 22  1  0  0  0  0
 21 23  1  0  0  0  0
 22 25  2  0  0  0  0
 22 37  1  0  0  0  0
 23 24  2  0  0  0  0
 24 25  1  0  0  0  0
 24 26  1  0  0  0  0
 25 27  1  0  0  0  0
 26 29  1  0  0  0  0
 26 36  2  0  0  0  0
 27 28  1  0  0  0  0
 28 29  1  0  0  0  0
 28 30  1  0  0  0  0
 28 31  1  0  0  0  0
 29 32  2  0  0  0  0
 30 31  1  0  0  0  0
 31 33  1  0  0  0  0
 31 34  1  0  0  0  0
 33 34  1  0  0  0  0
 34 35  2  0  0  0  0
 38 39  1  0  0  0  0
 39 40  1  0  0  0  0
 39 48  1  0  0  0  0
 40 41  1  0  0  0  0
 41 42  2  0  0  0  0
 41 43  1  0  0  0  0
 42 44  1  0  0  0  0
 43 45  2  0  0  0  0
 43 46  1  0  0  0  0
 46 47  2  0  0  0  0
 46 48  1  0  0  0  0
 48 49  2  0  0  0  0
 50 51  1  0  0  0  0
 50 52  1  0  0  0  0
 51 52  1  0  0  0  0
 53 54  2  0  0  0  0
M  CHG  1  17   1
M  END