
 OpenBabel10122020473D

 51 59  0  0  1  0  0  0  0  0999 V2000
  -10.1580   15.4730   67.5080 C   0  0  0  0  0  0  0  0  0  0  0  0
  -10.1820   16.6820   68.1100 C   0  0  0  0  0  0  0  0  0  0  0  0
  -10.7810   16.9080   69.3450 O   0  0  0  0  0  0  0  0  0  0  0  0
  -11.3720   15.8550   70.0200 C   0  0  0  0  0  0  0  0  0  0  0  0
  -11.3640   14.6090   69.5230 C   0  0  0  0  0  0  0  0  0  0  0  0
  -10.7680   14.2720   68.1970 C   0  0  0  0  0  0  0  0  0  0  0  0
  -12.0050   13.5340   70.3320 C   0  0  0  0  0  0  0  0  0  0  0  0
  -12.0070   12.3070   69.9210 N   0  0  0  0  0  0  0  0  0  0  0  0
  -12.6120   11.3380   70.6990 C   0  0  0  0  0  0  0  0  0  0  0  0
  -12.5830   10.1810   70.3000 O   0  0  0  0  0  0  0  0  0  0  0  0
  -13.2500   11.6070   71.8950 N   0  0  0  0  0  0  0  0  0  0  0  0
  -13.2600   12.8170   72.3310 C   0  0  0  0  0  0  0  0  0  0  0  0
  -12.6380   13.9280   71.6110 C   0  0  0  0  0  0  0  0  0  0  0  0
  -12.6160   15.2140   72.0080 C   0  0  0  0  0  0  0  0  0  0  0  0
  -11.9710   16.1510   71.2170 N   0  0  0  0  0  0  0  0  0  0  0  0
   -9.5910   17.9040   67.5380 C   0  0  0  0  0  0  0  0  0  0  0  0
  -10.4290   18.6120   66.7590 N   0  0  0  0  0  0  0  0  0  0  0  0
   -9.9620   19.7830   66.3250 C   0  0  0  0  0  0  0  0  0  0  0  0
   -8.7690   20.3080   66.6140 N   0  0  0  0  0  0  0  0  0  0  0  0
   -7.9580   19.6100   67.3920 C   0  0  0  0  0  0  0  0  0  0  0  0
   -8.3100   18.3530   67.8930 C   0  0  0  0  0  0  0  0  0  0  0  0
   -6.7890   20.1780   67.7070 N   0  0  0  0  0  0  0  0  0  0  0  0
   -7.3820   17.6710   68.7140 C   0  0  0  0  0  0  0  0  0  0  0  0
   -6.1690   18.2790   69.0130 C   0  0  0  0  0  0  0  0  0  0  0  0
   -5.9230   19.5410   68.5170 C   0  0  0  0  0  0  0  0  0  0  0  0
   -5.1650   17.6240   69.8490 C   0  0  0  0  0  0  0  0  0  0  0  0
   -4.8030   20.2730   68.7940 O   0  0  0  0  0  0  0  0  0  0  0  0
   -4.0080   19.8550   69.9100 C   0  0  0  0  0  0  0  0  0  0  0  0
   -3.8570   18.3600   70.0000 C   0  0  0  0  0  0  0  0  0  0  0  0
   -2.8120   17.7610   70.1950 O   0  0  0  0  0  0  0  0  0  0  0  0
   -5.3730   16.5640   70.4140 O   0  0  0  0  0  0  0  0  0  0  0  0
   -4.5380   20.4270   71.1930 C   0  0  0  0  0  0  0  0  0  0  0  0
   -5.9560   20.6870   71.2660 O   0  0  0  0  0  0  0  0  0  0  0  0
   -4.0110   19.8620   72.3990 O   0  0  0  0  0  0  0  0  0  0  0  0
   -3.6590   21.1290   72.1160 C   0  0  0  0  0  0  0  0  0  0  0  0
   -2.5580   21.6240   72.0140 O   0  0  0  0  0  0  0  0  0  0  0  0
   -9.5180   15.2980   66.2870 O   0  0  0  0  0  0  0  0  0  0  0  0
  -10.0270   14.2680   65.4260 C   0  0  0  0  0  0  0  0  0  0  0  0
  -10.2670   13.0550   66.1360 O   0  0  0  0  0  0  0  0  0  0  0  0
  -10.7150   12.0050   65.3540 C   0  0  0  0  0  0  0  0  0  0  0  0
  -10.3850   10.7410   65.6460 C   0  0  0  0  0  0  0  0  0  0  0  0
  -11.6170   12.2330   64.1890 C   0  0  0  0  0  0  0  0  0  0  0  0
   -9.5670   10.4070   66.6950 O   0  0  0  0  0  0  0  0  0  0  0  0
  -11.9600   13.6860   63.9390 C   0  0  0  0  0  0  0  0  0  0  0  0
  -12.0360   11.3420   63.4670 O   0  0  0  0  0  0  0  0  0  0  0  0
  -11.3230   14.7490   64.7950 C   0  0  0  0  0  0  0  0  0  0  0  0
  -12.7030   14.0000   63.0230 O   0  0  0  0  0  0  0  0  0  0  0  0
  -11.8200   15.8610   64.8980 O   0  0  0  0  0  0  0  0  0  0  0  0
  -13.2420   15.7280   73.2490 C   0  0  0  0  0  0  0  0  0  0  0  0
  -12.6310   15.5390   74.5340 O   0  0  0  0  0  0  0  0  0  0  0  0
  -12.7060   16.8580   73.9600 O   0  0  0  0  0  0  0  0  0  0  0  0
  1 37  1  0  0  0  0
  1  2  2  0  0  0  0
  1  6  1  0  0  0  0
  2  3  1  0  0  0  0
  2 16  1  0  0  0  0
  3  4  1  0  0  0  0
  4  5  2  0  0  0  0
  4 15  1  0  0  0  0
  5  6  1  0  0  0  0
  5  7  1  0  0  0  0
  7  8  2  0  0  0  0
  7 13  1  0  0  0  0
  8  9  1  0  0  0  0
  9 10  2  0  0  0  0
  9 11  1  0  0  0  0
 11 12  2  0  0  0  0
 12 13  1  0  0  0  0
 13 14  2  0  0  0  0
 14 15  1  0  0  0  0
 14 49  1  0  0  0  0
 16 17  2  0  0  0  0
 16 21  1  0  0  0  0
 17 18  1  0  0  0  0
 18 19  2  0  0  0  0
 19 20  1  0  0  0  0
 20 21  2  0  0  0  0
 20 22  1  0  0  0  0
 21 23  1  0  0  0  0
 22 25  2  0  0  0  0
 23 24  2  0  0  0  0
 24 25  1  0  0  0  0
 24 26  1  0  0  0  0
 25 27  1  0  0  0  0
 26 29  1  0  0  0  0
 26 31  2  0  0  0  0
 27 28  1  0  0  0  0
 28 29  1  0  0  0  0
 28 32  1  0  0  0  0
 29 30  2  0  0  0  0
 32 33  1  0  0  0  0
 32 34  1  0  0  0  0
 32 35  1  0  0  0  0
 34 35  1  0  0  0  0
 35 36  2  0  0  0  0
 37 38  1  0  0  0  0
 38 39  1  0  0  0  0
 38 46  1  0  0  0  0
 39 40  1  0  0  0  0
 40 41  2  0  0  0  0
 40 42  1  0  0  0  0
 41 43  1  0  0  0  0
 42 44  1  0  0  0  0
 42 45  2  0  0  0  0
 44 46  1  0  0  0  0
 44 47  2  0  0  0  0
 46 48  2  0  0  0  0
 49 50  1  0  0  0  0
 49 51  1  0  0  0  0
 50 51  1  0  0  0  0
M  END
