
 OpenBabel11172022303D

 52 60  0  0  1  0  0  0  0  0999 V2000
  -10.9280   15.8510   67.1560 C   0  0  0  0  0  0  0  0  0  0  0  0
  -10.3110   16.8460   67.8420 C   0  0  0  0  0  0  0  0  0  0  0  0
  -10.5170   17.0640   69.2120 O   0  0  0  0  0  0  0  0  0  0  0  0
  -11.3070   16.1750   69.9370 C   0  0  0  0  0  0  0  0  0  0  0  0
  -11.9290   15.1440   69.3480 C   0  0  0  0  0  0  0  0  0  0  0  0
  -11.8820   14.9290   67.8760 C   0  0  0  0  0  0  0  0  0  0  0  0
  -12.6950   14.1250   70.1540 C   0  0  0  0  0  0  0  0  0  0  0  0
  -12.0760   12.8570   69.9260 O   0  0  0  0  0  0  0  0  0  0  0  0
  -12.2560   11.8040   70.7610 C   0  0  0  0  0  0  0  0  0  0  0  0
  -11.8330   10.6920   70.4680 O   0  0  0  0  0  0  0  0  0  0  0  0
  -12.9010   12.0300   71.9290 O   0  0  0  0  0  0  0  0  0  0  0  0
  -13.4200   13.2980   72.3060 C   0  0  0  0  0  0  0  0  0  0  0  0
  -12.7120   14.3940   71.6120 C   0  0  0  0  0  0  0  0  0  0  0  0
  -12.1170   15.4870   72.1430 C   0  0  0  0  0  0  0  0  0  0  0  0
  -11.4400   16.3620   71.2960 N   0  0  0  0  0  0  0  0  0  0  0  0
  -14.7930   13.3550   71.9530 O   0  0  0  0  0  0  0  0  0  0  0  0
   -9.4160   17.8550   67.2220 C   0  0  0  0  0  0  0  0  0  0  0  0
   -9.9670   18.7350   66.3020 C   0  0  0  0  0  0  0  0  0  0  0  0
   -9.2610   19.7130   65.7050 N   0  0  0  0  0  0  0  0  0  0  0  0
   -7.9340   19.8590   65.9980 N   0  0  0  0  0  0  0  0  0  0  0  0
   -7.3280   19.0540   66.8820 C   0  0  0  0  0  0  0  0  0  0  0  0
   -8.0430   18.0270   67.5410 C   0  0  0  0  0  0  0  0  0  0  0  0
   -5.9730   19.2560   67.1590 C   0  0  0  0  0  0  0  0  0  0  0  0
   -7.3490   17.2560   68.4970 C   0  0  0  0  0  0  0  0  0  0  0  0
   -5.9980   17.5090   68.7800 C   0  0  0  0  0  0  0  0  0  0  0  0
   -5.2740   18.4910   68.0980 C   0  0  0  0  0  0  0  0  0  0  0  0
   -5.3280   16.7680   69.8560 C   0  0  0  0  0  0  0  0  0  0  0  0
   -3.9070   18.7860   68.3210 N   0  0  0  0  0  0  0  0  0  0  0  0
   -3.2220   18.0580   69.1570 C   0  0  0  0  0  0  0  0  0  0  0  0
   -3.8240   16.8910   69.8750 C   0  0  0  0  0  0  0  0  0  0  0  0
   -3.1120   16.0410   70.3800 O   0  0  0  0  0  0  0  0  0  0  0  0
   -5.9380   16.1290   70.6960 O   0  0  0  0  0  0  0  0  0  0  0  0
   -1.8160   18.3190   69.4580 C   0  0  0  0  0  0  0  0  0  0  0  0
   -0.8580   17.3440   68.9830 O   0  0  0  0  0  0  0  0  0  0  0  0
   -1.3700   19.6670   69.3130 O   0  0  0  0  0  0  0  0  0  0  0  0
   -1.4320   19.1820   70.5730 C   0  0  0  0  0  0  0  0  0  0  0  0
   -2.0400   19.6180   71.5110 O   0  0  0  0  0  0  0  0  0  0  0  0
  -10.7920   15.7110   65.7800 O   0  0  0  0  0  0  0  0  0  0  0  0
  -10.6070   14.3970   65.2200 C   0  0  0  0  0  0  0  0  0  0  0  0
  -10.3830   13.4230   66.2460 O   0  0  0  0  0  0  0  0  0  0  0  0
  -10.0700   12.1630   65.7450 C   0  0  0  0  0  0  0  0  0  0  0  0
   -9.2100   11.3640   66.3850 C   0  0  0  0  0  0  0  0  0  0  0  0
  -10.7120   11.6640   64.4950 C   0  0  0  0  0  0  0  0  0  0  0  0
   -8.5970   11.7380   67.5540 O   0  0  0  0  0  0  0  0  0  0  0  0
  -11.8320   12.5620   64.0060 C   0  0  0  0  0  0  0  0  0  0  0  0
  -10.3740   10.6590   63.8930 O   0  0  0  0  0  0  0  0  0  0  0  0
  -11.8520   14.0100   64.4420 C   0  0  0  0  0  0  0  0  0  0  0  0
  -12.7090   12.1170   63.2810 O   0  0  0  0  0  0  0  0  0  0  0  0
  -12.7690   14.7560   64.1290 O   0  0  0  0  0  0  0  0  0  0  0  0
  -12.1390   15.8340   73.5810 C   0  0  0  0  0  0  0  0  0  0  0  0
  -12.0880   17.1930   74.0430 O   0  0  0  0  0  0  0  0  0  0  0  0
  -13.2920   16.4190   74.2060 O   0  0  0  0  0  0  0  0  0  0  0  0
  1 38  1  0  0  0  0
  1  2  2  0  0  0  0
  1  6  1  0  0  0  0
  2  3  1  0  0  0  0
  2 17  1  0  0  0  0
  3  4  1  0  0  0  0
  4  5  2  0  0  0  0
  4 15  1  0  0  0  0
  5  6  1  0  0  0  0
  5  7  1  0  0  0  0
  7  8  1  0  0  0  0
  7 13  1  0  0  0  0
  8  9  1  0  0  0  0
  9 10  2  0  0  0  0
  9 11  1  0  0  0  0
 11 12  1  0  0  0  0
 12 13  1  0  0  0  0
 12 16  1  0  0  0  0
 13 14  2  0  0  0  0
 14 15  1  0  0  0  0
 14 50  1  0  0  0  0
 17 18  2  0  0  0  0
 17 22  1  0  0  0  0
 18 19  1  0  0  0  0
 19 20  2  0  0  0  0
 20 21  1  0  0  0  0
 21 22  2  0  0  0  0
 21 23  1  0  0  0  0
 22 24  1  0  0  0  0
 23 26  2  0  0  0  0
 24 25  2  0  0  0  0
 25 26  1  0  0  0  0
 25 27  1  0  0  0  0
 26 28  1  0  0  0  0
 27 30  1  0  0  0  0
 27 32  2  0  0  0  0
 28 29  2  0  0  0  0
 29 30  1  0  0  0  0
 29 33  1  0  0  0  0
 30 31  2  0  0  0  0
 33 34  1  0  0  0  0
 33 35  1  0  0  0  0
 33 36  1  0  0  0  0
 35 36  1  0  0  0  0
 36 37  2  0  0  0  0
 38 39  1  0  0  0  0
 39 40  1  0  0  0  0
 39 47  1  0  0  0  0
 40 41  1  0  0  0  0
 41 42  2  0  0  0  0
 41 43  1  0  0  0  0
 42 44  1  0  0  0  0
 43 45  1  0  0  0  0
 43 46  2  0  0  0  0
 45 47  1  0  0  0  0
 45 48  2  0  0  0  0
 47 49  2  0  0  0  0
 50 51  1  0  0  0  0
 50 52  1  0  0  0  0
 51 52  1  0  0  0  0
M  END
