
 OpenBabel11222023183D

 54 63  0  0  1  0  0  0  0  0999 V2000
  -10.9370   15.5470   66.9330 C   0  0  0  0  0  0  0  0  0  0  0  0
  -10.7300   16.7390   67.5400 C   0  0  0  0  0  0  0  0  0  0  0  0
  -11.2080   16.9760   68.8350 O   0  0  0  0  0  0  0  0  0  0  0  0
  -11.6940   15.9300   69.6220 C   0  0  0  0  0  0  0  0  0  0  0  0
  -11.9740   14.7330   69.0740 C   0  0  0  0  0  0  0  0  0  0  0  0
  -11.7200   14.4500   67.6230 C   0  0  0  0  0  0  0  0  0  0  0  0
  -12.5840   13.6180   69.8850 C   0  0  0  0  0  0  0  0  0  0  0  0
  -11.7830   12.4510   69.7420 O   0  0  0  0  0  0  0  0  0  0  0  0
  -12.2980   11.3690   70.3670 C   0  0  0  0  0  0  0  0  0  0  0  0
  -11.9590   10.1870   70.0290 N   0  0  0  0  0  0  0  0  0  0  0  0
  -13.2070   11.6020   71.3330 O   0  0  0  0  0  0  0  0  0  0  0  0
  -12.9980   12.7480   72.1460 C   0  0  0  0  0  0  0  0  0  0  0  0
  -12.6040   13.9400   71.3350 C   0  0  0  0  0  0  0  0  0  0  0  0
  -12.2660   15.1530   71.8260 C   0  0  0  0  0  0  0  0  0  0  0  0
  -11.8810   16.1750   70.9670 O   0  0  0  0  0  0  0  0  0  0  0  0
  -14.2220   13.0960   72.7630 O   0  0  0  0  0  0  0  0  0  0  0  0
   -9.9990   17.9060   66.9070 C   0  0  0  0  0  0  0  0  0  0  0  0
  -10.7000   18.8310   66.1260 C   0  0  0  0  0  0  0  0  0  0  0  0
  -10.0960   19.8950   65.5860 N   0  0  0  0  0  0  0  0  0  0  0  0
  -10.8140   20.7300   64.8090 F   0  0  0  0  0  0  0  0  0  0  0  0
   -8.8300   20.1850   65.8130 N   0  0  0  0  0  0  0  0  0  0  0  0
   -8.0930   19.3800   66.5800 C   0  0  0  0  0  0  0  0  0  0  0  0
   -8.6230   18.1900   67.1210 C   0  0  0  0  0  0  0  0  0  0  0  0
   -6.7700   19.7350   66.8830 C   0  0  0  0  0  0  0  0  0  0  0  0
   -7.7460   17.3800   67.8740 C   0  0  0  0  0  0  0  0  0  0  0  0
   -6.4630   17.8040   68.2320 C   0  0  0  0  0  0  0  0  0  0  0  0
   -5.9520   18.9780   67.7260 C   0  0  0  0  0  0  0  0  0  0  0  0
   -5.7460   17.0660   69.2740 C   0  0  0  0  0  0  0  0  0  0  0  0
   -4.7200   19.4640   68.0550 O   0  0  0  0  0  0  0  0  0  0  0  0
   -3.8250   18.5660   68.7690 C   0  0  0  0  0  0  0  0  0  0  0  0
   -4.4260   17.6340   69.7370 C   0  0  0  0  0  0  0  0  0  0  0  0
   -2.7320   18.0660   68.0450 O   0  0  0  0  0  0  0  0  0  0  0  0
   -2.4450   19.0570   69.0860 C   0  0  0  0  0  0  0  0  0  0  0  0
   -3.9570   17.3660   70.8280 O   0  0  0  0  0  0  0  0  0  0  0  0
   -2.3930   20.4830   68.6790 O   0  0  0  0  0  0  0  0  0  0  0  0
   -1.2820   19.7850   68.6590 C   0  0  0  0  0  0  0  0  0  0  0  0
   -0.1900   19.9680   69.1480 O   0  0  0  0  0  0  0  0  0  0  0  0
   -6.2930   16.1090   69.8120 O   0  0  0  0  0  0  0  0  0  0  0  0
   -6.2880   20.8840   66.3860 F   0  0  0  0  0  0  0  0  0  0  0  0
  -10.4030   15.3100   65.6840 O   0  0  0  0  0  0  0  0  0  0  0  0
  -10.1390   13.9750   65.2170 C   0  0  0  0  0  0  0  0  0  0  0  0
   -9.8900   13.0740   66.2840 O   0  0  0  0  0  0  0  0  0  0  0  0
   -9.6440   11.7720   65.8750 C   0  0  0  0  0  0  0  0  0  0  0  0
   -8.8190   10.9920   66.5810 C   0  0  0  0  0  0  0  0  0  0  0  0
  -10.3110   11.1930   64.6660 C   0  0  0  0  0  0  0  0  0  0  0  0
   -8.1580   11.4330   67.7010 O   0  0  0  0  0  0  0  0  0  0  0  0
  -11.3030   12.1350   64.0010 C   0  0  0  0  0  0  0  0  0  0  0  0
  -10.0610   10.0910   64.2130 O   0  0  0  0  0  0  0  0  0  0  0  0
  -11.4180   13.5370   64.5410 C   0  0  0  0  0  0  0  0  0  0  0  0
  -11.9540   11.8100   63.0240 O   0  0  0  0  0  0  0  0  0  0  0  0
  -12.4490   14.1960   64.4830 O   0  0  0  0  0  0  0  0  0  0  0  0
  -12.2420   15.4780   73.2710 C   0  0  0  0  0  0  0  0  0  0  0  0
  -11.9960   16.8250   73.7120 O   0  0  0  0  0  0  0  0  0  0  0  0
  -13.3120   16.2500   73.8580 O   0  0  0  0  0  0  0  0  0  0  0  0
  1 40  1  0  0  0  0
  1  2  2  0  0  0  0
  1  6  1  0  0  0  0
  2  3  1  0  0  0  0
  2 17  1  0  0  0  0
  3  4  1  0  0  0  0
  4  5  2  0  0  0  0
  4 15  1  0  0  0  0
  5  6  1  0  0  0  0
  5  7  1  0  0  0  0
  7  8  1  0  0  0  0
  7 13  1  0  0  0  0
  8  9  1  0  0  0  0
  9 10  2  0  0  0  0
  9 11  1  0  0  0  0
 11 12  1  0  0  0  0
 12 13  1  0  0  0  0
 12 16  1  0  0  0  0
 13 14  2  0  0  0  0
 14 15  1  0  0  0  0
 14 52  1  0  0  0  0
 17 18  2  0  0  0  0
 17 23  1  0  0  0  0
 18 19  1  0  0  0  0
 19 20  1  0  0  0  0
 19 21  2  0  0  0  0
 21 22  1  0  0  0  0
 22 23  2  0  0  0  0
 22 24  1  0  0  0  0
 23 25  1  0  0  0  0
 24 27  2  0  0  0  0
 24 39  1  0  0  0  0
 25 26  2  0  0  0  0
 26 27  1  0  0  0  0
 26 28  1  0  0  0  0
 27 29  1  0  0  0  0
 28 31  1  0  0  0  0
 28 38  2  0  0  0  0
 29 30  1  0  0  0  0
 30 31  1  0  0  0  0
 30 32  1  0  0  0  0
 30 33  1  0  0  0  0
 31 34  2  0  0  0  0
 32 33  1  0  0  0  0
 33 35  1  0  0  0  0
 33 36  1  0  0  0  0
 35 36  1  0  0  0  0
 36 37  2  0  0  0  0
 40 41  1  0  0  0  0
 41 42  1  0  0  0  0
 41 49  1  0  0  0  0
 42 43  1  0  0  0  0
 43 44  2  0  0  0  0
 43 45  1  0  0  0  0
 44 46  1  0  0  0  0
 45 47  1  0  0  0  0
 45 48  2  0  0  0  0
 47 49  1  0  0  0  0
 47 50  2  0  0  0  0
 49 51  2  0  0  0  0
 52 53  1  0  0  0  0
 52 54  1  0  0  0  0
 53 54  1  0  0  0  0
M  CHG  2  15   1  19   1
M  END