
 OpenBabel11212017443D

 54 62  0  0  1  0  0  0  0  0999 V2000
  -11.0250   15.6790   67.3430 C   0  0  0  0  0  0  0  0  0  0  0  0
  -10.5560   16.7650   68.0110 C   0  0  0  0  0  0  0  0  0  0  0  0
  -10.7150   16.9040   69.4100 O   0  0  0  0  0  0  0  0  0  0  0  0
  -11.4240   15.9510   70.1550 C   0  0  0  0  0  0  0  0  0  0  0  0
  -11.9130   14.8550   69.5550 C   0  0  0  0  0  0  0  0  0  0  0  0
  -11.7800   14.6090   68.0880 C   0  0  0  0  0  0  0  0  0  0  0  0
  -12.6460   13.7830   70.3020 C   0  0  0  0  0  0  0  0  0  0  0  0
  -11.8860   12.5930   70.1840 O   0  0  0  0  0  0  0  0  0  0  0  0
  -12.4570   11.4860   70.7320 C   0  0  0  0  0  0  0  0  0  0  0  0
  -12.1210   10.3620   70.4060 O   0  0  0  0  0  0  0  0  0  0  0  0
  -13.4460   11.7440   71.6220 O   0  0  0  0  0  0  0  0  0  0  0  0
  -13.3720   12.9100   72.4400 C   0  0  0  0  0  0  0  0  0  0  0  0
  -12.7170   14.0580   71.7490 C   0  0  0  0  0  0  0  0  0  0  0  0
  -12.2210   15.1840   72.3060 C   0  0  0  0  0  0  0  0  0  0  0  0
  -11.6020   16.1520   71.5140 O   0  0  0  0  0  0  0  0  0  0  0  0
  -14.6900   13.3550   72.6960 O   0  0  0  0  0  0  0  0  0  0  0  0
   -9.8470   17.9140   67.3410 C   0  0  0  0  0  0  0  0  0  0  0  0
  -10.5350   18.7020   66.4180 C   0  0  0  0  0  0  0  0  0  0  0  0
   -9.9560   19.7450   65.8170 N   0  0  0  0  0  0  0  0  0  0  0  0
  -10.6930   20.5150   64.9920 F   0  0  0  0  0  0  0  0  0  0  0  0
   -8.6910   20.0560   65.9960 N   0  0  0  0  0  0  0  0  0  0  0  0
   -7.9480   19.3540   66.8540 C   0  0  0  0  0  0  0  0  0  0  0  0
   -8.4940   18.2700   67.5830 C   0  0  0  0  0  0  0  0  0  0  0  0
   -6.6030   19.7380   67.0530 C   0  0  0  0  0  0  0  0  0  0  0  0
   -7.6560   17.6280   68.5200 C   0  0  0  0  0  0  0  0  0  0  0  0
   -6.3290   18.0200   68.7130 C   0  0  0  0  0  0  0  0  0  0  0  0
   -5.5160   17.3350   69.7140 C   0  0  0  0  0  0  0  0  0  0  0  0
   -5.7940   19.0650   67.9880 C   0  0  0  0  0  0  0  0  0  0  0  0
   -5.9570   16.3590   70.3060 O   0  0  0  0  0  0  0  0  0  0  0  0
   -4.1430   17.9000   69.9800 C   0  0  0  0  0  0  0  0  0  0  0  0
   -3.3300   17.2440   70.6120 O   0  0  0  0  0  0  0  0  0  0  0  0
   -3.9410   19.3160   69.4870 C   0  0  0  0  0  0  0  0  0  0  0  0
   -4.5260   19.5470   68.1880 O   0  0  0  0  0  0  0  0  0  0  0  0
   -5.9930   20.6800   66.1910 N   0  0  0  0  0  0  0  0  0  0  0  0
   -4.3590   20.3380   70.5240 C   0  0  0  0  0  0  0  0  0  0  0  0
   -5.6490   20.9520   70.3230 O   0  0  0  0  0  0  0  0  0  0  0  0
   -4.0870   19.9440   71.8860 O   0  0  0  0  0  0  0  0  0  0  0  0
   -3.4620   21.0250   71.4320 C   0  0  0  0  0  0  0  0  0  0  0  0
   -2.2790   21.3250   71.3370 O   0  0  0  0  0  0  0  0  0  0  0  0
  -10.8760   15.5370   65.9580 O   0  0  0  0  0  0  0  0  0  0  0  0
   -9.8180   14.6820   65.4430 C   0  0  0  0  0  0  0  0  0  0  0  0
   -8.8630   14.3380   66.4330 O   0  0  0  0  0  0  0  0  0  0  0  0
   -9.1140   13.2810   67.2860 C   0  0  0  0  0  0  0  0  0  0  0  0
   -8.5070   13.2180   68.4770 C   0  0  0  0  0  0  0  0  0  0  0  0
  -10.0460   12.1700   66.9480 C   0  0  0  0  0  0  0  0  0  0  0  0
   -7.7010   14.2180   68.9570 O   0  0  0  0  0  0  0  0  0  0  0  0
  -10.9130   12.4600   65.7540 C   0  0  0  0  0  0  0  0  0  0  0  0
  -10.1720   11.1480   67.5980 O   0  0  0  0  0  0  0  0  0  0  0  0
  -10.4390   13.4740   64.7680 C   0  0  0  0  0  0  0  0  0  0  0  0
  -12.0610   12.0500   65.6760 O   0  0  0  0  0  0  0  0  0  0  0  0
  -10.6370   13.3510   63.5700 O   0  0  0  0  0  0  0  0  0  0  0  0
  -12.2650   15.4520   73.7650 C   0  0  0  0  0  0  0  0  0  0  0  0
  -12.1170   16.7870   74.2690 O   0  0  0  0  0  0  0  0  0  0  0  0
  -13.3930   16.1210   74.3530 O   0  0  0  0  0  0  0  0  0  0  0  0
  1 40  1  0  0  0  0
  1  2  2  0  0  0  0
  1  6  1  0  0  0  0
  2  3  1  0  0  0  0
  2 17  1  0  0  0  0
  3  4  1  0  0  0  0
  4  5  2  0  0  0  0
  4 15  1  0  0  0  0
  5  6  1  0  0  0  0
  5  7  1  0  0  0  0
  7  8  1  0  0  0  0
  7 13  1  0  0  0  0
  8  9  1  0  0  0  0
  9 10  2  0  0  0  0
  9 11  1  0  0  0  0
 11 12  1  0  0  0  0
 12 13  1  0  0  0  0
 12 16  1  0  0  0  0
 13 14  2  0  0  0  0
 14 15  1  0  0  0  0
 14 52  1  0  0  0  0
 17 18  2  0  0  0  0
 17 23  1  0  0  0  0
 18 19  1  0  0  0  0
 19 20  1  0  0  0  0
 19 21  2  0  0  0  0
 21 22  1  0  0  0  0
 22 23  2  0  0  0  0
 22 24  1  0  0  0  0
 23 25  1  0  0  0  0
 24 28  2  0  0  0  0
 24 34  1  0  0  0  0
 25 26  2  0  0  0  0
 26 27  1  0  0  0  0
 26 28  1  0  0  0  0
 27 29  2  0  0  0  0
 27 30  1  0  0  0  0
 28 33  1  0  0  0  0
 30 31  2  0  0  0  0
 30 32  1  0  0  0  0
 32 33  1  0  0  0  0
 32 35  1  0  0  0  0
 35 36  1  0  0  0  0
 35 37  1  0  0  0  0
 35 38  1  0  0  0  0
 37 38  1  0  0  0  0
 38 39  2  0  0  0  0
 40 41  1  0  0  0  0
 41 42  1  0  0  0  0
 41 49  1  0  0  0  0
 42 43  1  0  0  0  0
 43 44  2  0  0  0  0
 43 45  1  0  0  0  0
 44 46  1  0  0  0  0
 45 47  1  0  0  0  0
 45 48  2  0  0  0  0
 47 49  1  0  0  0  0
 47 50  2  0  0  0  0
 49 51  2  0  0  0  0
 52 53  1  0  0  0  0
 52 54  1  0  0  0  0
 53 54  1  0  0  0  0
M  CHG  2  15   1  19   1
M  END