
 OpenBabel11172005353D

 52 61  0  0  1  0  0  0  0  0999 V2000
  -10.6330   15.7440   67.1550 C   0  0  0  0  0  0  0  0  0  0  0  0
  -10.7870   16.8780   67.8730 C   0  0  0  0  0  0  0  0  0  0  0  0
  -11.5670   16.9540   69.0240 O   0  0  0  0  0  0  0  0  0  0  0  0
  -12.0800   15.7840   69.5670 C   0  0  0  0  0  0  0  0  0  0  0  0
  -11.9030   14.5890   68.9750 C   0  0  0  0  0  0  0  0  0  0  0  0
  -11.2520   14.4590   67.6390 C   0  0  0  0  0  0  0  0  0  0  0  0
  -12.4350   13.3470   69.6280 C   0  0  0  0  0  0  0  0  0  0  0  0
  -11.4880   12.2500   69.4540 O   0  0  0  0  0  0  0  0  0  0  0  0
  -11.8200   11.0460   70.0340 C   0  0  0  0  0  0  0  0  0  0  0  0
  -11.2020   10.0100   69.8580 O   0  0  0  0  0  0  0  0  0  0  0  0
  -13.0220   11.1530   70.8810 C   0  0  0  0  0  0  0  0  0  0  0  0
  -12.5600   12.3260   71.9250 C   0  0  0  0  0  0  0  0  0  0  0  0
  -12.7730   13.5410   71.1170 C   0  0  0  0  0  0  0  0  0  0  0  0
  -12.9900   14.7870   71.5970 C   0  0  0  0  0  0  0  0  0  0  0  0
  -12.7730   15.8770   70.7570 N   0  0  0  0  0  0  0  0  0  0  0  0
  -13.1940   11.1200   72.2690 O   0  0  0  0  0  0  0  0  0  0  0  0
  -10.0880   18.1270   67.5370 C   0  0  0  0  0  0  0  0  0  0  0  0
  -10.7750   19.0790   66.7970 C   0  0  0  0  0  0  0  0  0  0  0  0
  -10.2420   20.2650   66.4570 N   0  0  0  0  0  0  0  0  0  0  0  0
   -8.9770   20.5680   66.8680 N   0  0  0  0  0  0  0  0  0  0  0  0
   -8.2600   19.6990   67.5940 C   0  0  0  0  0  0  0  0  0  0  0  0
   -8.7760   18.4350   67.9500 C   0  0  0  0  0  0  0  0  0  0  0  0
   -6.9830   20.0580   68.0110 C   0  0  0  0  0  0  0  0  0  0  0  0
   -7.9590   17.5530   68.6930 C   0  0  0  0  0  0  0  0  0  0  0  0
   -6.6750   17.9390   69.0880 C   0  0  0  0  0  0  0  0  0  0  0  0
   -6.1900   19.1990   68.7720 C   0  0  0  0  0  0  0  0  0  0  0  0
   -5.8240   17.0080   69.8360 C   0  0  0  0  0  0  0  0  0  0  0  0
   -4.9700   19.6830   69.1470 O   0  0  0  0  0  0  0  0  0  0  0  0
   -4.2480   18.9520   70.1470 C   0  0  0  0  0  0  0  0  0  0  0  0
   -4.4050   17.4560   70.0720 C   0  0  0  0  0  0  0  0  0  0  0  0
   -3.5070   16.6430   70.2360 O   0  0  0  0  0  0  0  0  0  0  0  0
   -6.2310   15.9390   70.2620 O   0  0  0  0  0  0  0  0  0  0  0  0
   -4.5850   19.4590   71.5200 C   0  0  0  0  0  0  0  0  0  0  0  0
   -5.5020   18.6690   72.3080 O   0  0  0  0  0  0  0  0  0  0  0  0
   -3.4960   19.9870   72.2800 O   0  0  0  0  0  0  0  0  0  0  0  0
   -4.4170   20.8660   71.8500 C   0  0  0  0  0  0  0  0  0  0  0  0
   -4.2800   21.8590   71.1630 O   0  0  0  0  0  0  0  0  0  0  0  0
   -9.8230   15.7090   66.0270 O   0  0  0  0  0  0  0  0  0  0  0  0
   -9.9910   14.5780   65.1580 C   0  0  0  0  0  0  0  0  0  0  0  0
   -9.9660   13.3610   65.8980 O   0  0  0  0  0  0  0  0  0  0  0  0
  -10.0330   12.2380   65.1000 C   0  0  0  0  0  0  0  0  0  0  0  0
   -9.2320   11.1850   65.3070 C   0  0  0  0  0  0  0  0  0  0  0  0
  -11.0290   12.1600   64.0000 C   0  0  0  0  0  0  0  0  0  0  0  0
   -8.2520   11.1740   66.2640 O   0  0  0  0  0  0  0  0  0  0  0  0
  -11.7730   13.4550   63.7490 C   0  0  0  0  0  0  0  0  0  0  0  0
  -11.2220   11.1630   63.3230 O   0  0  0  0  0  0  0  0  0  0  0  0
  -11.3000   14.7360   64.3960 C   0  0  0  0  0  0  0  0  0  0  0  0
  -12.7400   13.4640   63.0020 O   0  0  0  0  0  0  0  0  0  0  0  0
  -11.9090   15.7830   64.2260 O   0  0  0  0  0  0  0  0  0  0  0  0
  -13.3510   15.0740   73.0070 C   0  0  0  0  0  0  0  0  0  0  0  0
  -12.3660   15.0970   74.0500 O   0  0  0  0  0  0  0  0  0  0  0  0
  -13.0190   16.3180   73.6470 O   0  0  0  0  0  0  0  0  0  0  0  0
  1 38  1  0  0  0  0
  1  2  2  0  0  0  0
  1  6  1  0  0  0  0
  2  3  1  0  0  0  0
  2 17  1  0  0  0  0
  3  4  1  0  0  0  0
  4  5  2  0  0  0  0
  4 15  1  0  0  0  0
  5  6  1  0  0  0  0
  5  7  1  0  0  0  0
  7  8  1  0  0  0  0
  7 13  1  0  0  0  0
  8  9  1  0  0  0  0
  9 10  2  0  0  0  0
  9 11  1  0  0  0  0
 11 12  1  0  0  0  0
 11 16  1  0  0  0  0
 12 13  1  0  0  0  0
 12 16  1  0  0  0  0
 13 14  2  0  0  0  0
 14 15  1  0  0  0  0
 14 50  1  0  0  0  0
 17 18  2  0  0  0  0
 17 22  1  0  0  0  0
 18 19  1  0  0  0  0
 19 20  2  0  0  0  0
 20 21  1  0  0  0  0
 21 22  2  0  0  0  0
 21 23  1  0  0  0  0
 22 24  1  0  0  0  0
 23 26  2  0  0  0  0
 24 25  2  0  0  0  0
 25 26  1  0  0  0  0
 25 27  1  0  0  0  0
 26 28  1  0  0  0  0
 27 30  1  0  0  0  0
 27 32  2  0  0  0  0
 28 29  1  0  0  0  0
 29 30  1  0  0  0  0
 29 33  1  0  0  0  0
 30 31  2  0  0  0  0
 33 34  1  0  0  0  0
 33 35  1  0  0  0  0
 33 36  1  0  0  0  0
 35 36  1  0  0  0  0
 36 37  2  0  0  0  0
 38 39  1  0  0  0  0
 39 40  1  0  0  0  0
 39 47  1  0  0  0  0
 40 41  1  0  0  0  0
 41 42  2  0  0  0  0
 41 43  1  0  0  0  0
 42 44  1  0  0  0  0
 43 45  1  0  0  0  0
 43 46  2  0  0  0  0
 45 47  1  0  0  0  0
 45 48  2  0  0  0  0
 47 49  2  0  0  0  0
 50 51  1  0  0  0  0
 50 52  1  0  0  0  0
 51 52  1  0  0  0  0
M  END
