
 OpenBabel11212020473D

 54 62  0  0  1  0  0  0  0  0999 V2000
  -11.0570   15.7890   67.5630 C   0  0  0  0  0  0  0  0  0  0  0  0
  -10.5860   16.8570   68.2670 C   0  0  0  0  0  0  0  0  0  0  0  0
  -10.7470   16.9250   69.6550 O   0  0  0  0  0  0  0  0  0  0  0  0
  -11.5990   16.0550   70.3200 C   0  0  0  0  0  0  0  0  0  0  0  0
  -12.0230   14.9240   69.7310 C   0  0  0  0  0  0  0  0  0  0  0  0
  -11.6710   14.6070   68.3010 C   0  0  0  0  0  0  0  0  0  0  0  0
  -12.8830   13.9280   70.4640 C   0  0  0  0  0  0  0  0  0  0  0  0
  -12.1130   12.7460   70.5910 O   0  0  0  0  0  0  0  0  0  0  0  0
  -12.6040   11.7230   71.3410 C   0  0  0  0  0  0  0  0  0  0  0  0
  -12.1110   10.6090   71.2910 O   0  0  0  0  0  0  0  0  0  0  0  0
  -13.6510   12.0180   72.1480 O   0  0  0  0  0  0  0  0  0  0  0  0
  -14.0150   13.3410   72.5270 C   0  0  0  0  0  0  0  0  0  0  0  0
  -13.2020   14.3760   71.8400 C   0  0  0  0  0  0  0  0  0  0  0  0
  -12.7760   15.5510   72.3560 C   0  0  0  0  0  0  0  0  0  0  0  0
  -11.9670   16.3890   71.6060 O   0  0  0  0  0  0  0  0  0  0  0  0
  -15.3450   13.5820   72.1240 O   0  0  0  0  0  0  0  0  0  0  0  0
   -9.8400   18.0350   67.6940 C   0  0  0  0  0  0  0  0  0  0  0  0
  -10.4540   18.7850   66.6780 C   0  0  0  0  0  0  0  0  0  0  0  0
   -9.8410   19.8420   66.1220 N   0  0  0  0  0  0  0  0  0  0  0  0
  -10.4790   20.5170   65.1470 F   0  0  0  0  0  0  0  0  0  0  0  0
   -8.6140   20.2420   66.4810 C   0  0  0  0  0  0  0  0  0  0  0  0
   -7.8940   19.5280   67.4310 C   0  0  0  0  0  0  0  0  0  0  0  0
   -8.4890   18.3960   68.0480 C   0  0  0  0  0  0  0  0  0  0  0  0
   -6.5710   19.9180   67.7430 C   0  0  0  0  0  0  0  0  0  0  0  0
   -7.6450   17.7020   68.9490 C   0  0  0  0  0  0  0  0  0  0  0  0
   -6.3010   18.0480   69.1650 C   0  0  0  0  0  0  0  0  0  0  0  0
   -5.4370   17.1170   69.9010 C   0  0  0  0  0  0  0  0  0  0  0  0
   -5.7570   19.1840   68.6030 C   0  0  0  0  0  0  0  0  0  0  0  0
   -5.8810   16.0290   70.2520 O   0  0  0  0  0  0  0  0  0  0  0  0
   -3.9900   17.5300   70.0820 C   0  0  0  0  0  0  0  0  0  0  0  0
   -3.1460   16.7020   70.3860 O   0  0  0  0  0  0  0  0  0  0  0  0
   -3.7350   19.0110   69.8780 C   0  0  0  0  0  0  0  0  0  0  0  0
   -4.4750   19.6050   68.7970 O   0  0  0  0  0  0  0  0  0  0  0  0
   -6.0750   21.0180   67.1550 F   0  0  0  0  0  0  0  0  0  0  0  0
   -3.9800   19.7590   71.1460 C   0  0  0  0  0  0  0  0  0  0  0  0
   -4.9940   19.2130   72.0300 O   0  0  0  0  0  0  0  0  0  0  0  0
   -2.8180   20.2760   71.7820 O   0  0  0  0  0  0  0  0  0  0  0  0
   -3.6980   21.1860   71.3210 C   0  0  0  0  0  0  0  0  0  0  0  0
   -4.3600   22.0060   71.9250 O   0  0  0  0  0  0  0  0  0  0  0  0
  -10.9620   15.7470   66.1750 O   0  0  0  0  0  0  0  0  0  0  0  0
  -10.6410   14.5180   65.4620 C   0  0  0  0  0  0  0  0  0  0  0  0
  -10.2660   13.4950   66.3720 O   0  0  0  0  0  0  0  0  0  0  0  0
   -9.9100   12.3190   65.7350 C   0  0  0  0  0  0  0  0  0  0  0  0
   -8.7370   11.7010   65.9370 C   0  0  0  0  0  0  0  0  0  0  0  0
  -10.8500   11.6810   64.7800 C   0  0  0  0  0  0  0  0  0  0  0  0
   -7.7380   12.2180   66.7180 O   0  0  0  0  0  0  0  0  0  0  0  0
  -11.8030   12.6620   64.1320 C   0  0  0  0  0  0  0  0  0  0  0  0
  -10.8660   10.4930   64.5190 O   0  0  0  0  0  0  0  0  0  0  0  0
  -11.6900   14.1410   64.4120 C   0  0  0  0  0  0  0  0  0  0  0  0
  -12.7070   12.2670   63.4150 O   0  0  0  0  0  0  0  0  0  0  0  0
  -12.4510   14.9480   63.8890 O   0  0  0  0  0  0  0  0  0  0  0  0
  -13.0870   16.0200   73.7250 C   0  0  0  0  0  0  0  0  0  0  0  0
  -12.3310   15.5550   74.8500 O   0  0  0  0  0  0  0  0  0  0  0  0
  -12.1870   16.9170   74.4030 O   0  0  0  0  0  0  0  0  0  0  0  0
  1 40  1  0  0  0  0
  1  2  2  0  0  0  0
  1  6  1  0  0  0  0
  2  3  1  0  0  0  0
  2 17  1  0  0  0  0
  3  4  1  0  0  0  0
  4  5  2  0  0  0  0
  4 15  1  0  0  0  0
  5  6  1  0  0  0  0
  5  7  1  0  0  0  0
  7  8  1  0  0  0  0
  7 13  1  0  0  0  0
  8  9  1  0  0  0  0
  9 10  2  0  0  0  0
  9 11  1  0  0  0  0
 11 12  1  0  0  0  0
 12 13  1  0  0  0  0
 12 16  1  0  0  0  0
 13 14  2  0  0  0  0
 14 15  1  0  0  0  0
 14 52  1  0  0  0  0
 17 18  2  0  0  0  0
 17 23  1  0  0  0  0
 18 19  1  0  0  0  0
 19 20  1  0  0  0  0
 19 21  2  0  0  0  0
 21 22  1  0  0  0  0
 22 23  2  0  0  0  0
 22 24  1  0  0  0  0
 23 25  1  0  0  0  0
 24 28  2  0  0  0  0
 24 34  1  0  0  0  0
 25 26  2  0  0  0  0
 26 27  1  0  0  0  0
 26 28  1  0  0  0  0
 27 29  2  0  0  0  0
 27 30  1  0  0  0  0
 28 33  1  0  0  0  0
 30 31  2  0  0  0  0
 30 32  1  0  0  0  0
 32 33  1  0  0  0  0
 32 35  1  0  0  0  0
 35 36  1  0  0  0  0
 35 37  1  0  0  0  0
 35 38  1  0  0  0  0
 37 38  1  0  0  0  0
 38 39  2  0  0  0  0
 40 41  1  0  0  0  0
 41 42  1  0  0  0  0
 41 49  1  0  0  0  0
 42 43  1  0  0  0  0
 43 44  2  0  0  0  0
 43 45  1  0  0  0  0
 44 46  1  0  0  0  0
 45 47  1  0  0  0  0
 45 48  2  0  0  0  0
 47 49  1  0  0  0  0
 47 50  2  0  0  0  0
 49 51  2  0  0  0  0
 52 53  1  0  0  0  0
 52 54  1  0  0  0  0
 53 54  1  0  0  0  0
M  CHG  2  15   1  19   1
M  END