
 OpenBabel11242000273D

 54 62  0  0  1  0  0  0  0  0999 V2000
  -11.1050   15.7940   67.3950 C   0  0  0  0  0  0  0  0  0  0  0  0
  -10.6310   16.8650   68.0810 C   0  0  0  0  0  0  0  0  0  0  0  0
  -10.9110   17.0170   69.4550 O   0  0  0  0  0  0  0  0  0  0  0  0
  -11.6110   16.0310   70.1880 C   0  0  0  0  0  0  0  0  0  0  0  0
  -12.0530   14.9250   69.5460 C   0  0  0  0  0  0  0  0  0  0  0  0
  -11.9230   14.7220   68.0650 C   0  0  0  0  0  0  0  0  0  0  0  0
  -12.7040   13.7590   70.2490 C   0  0  0  0  0  0  0  0  0  0  0  0
  -11.8120   12.6710   70.1000 O   0  0  0  0  0  0  0  0  0  0  0  0
  -12.1900   11.4870   70.6600 C   0  0  0  0  0  0  0  0  0  0  0  0
  -11.6570   10.4420   70.3340 O   0  0  0  0  0  0  0  0  0  0  0  0
  -13.1770   11.5730   71.5820 O   0  0  0  0  0  0  0  0  0  0  0  0
  -13.4190   12.7600   72.3300 C   0  0  0  0  0  0  0  0  0  0  0  0
  -12.8080   13.9710   71.7010 C   0  0  0  0  0  0  0  0  0  0  0  0
  -12.4000   15.1020   72.3100 C   0  0  0  0  0  0  0  0  0  0  0  0
  -11.8370   16.1510   71.5710 O   0  0  0  0  0  0  0  0  0  0  0  0
  -14.8020   13.0310   72.3240 O   0  0  0  0  0  0  0  0  0  0  0  0
   -9.7600   17.9360   67.3920 C   0  0  0  0  0  0  0  0  0  0  0  0
  -10.3460   18.8300   66.4690 C   0  0  0  0  0  0  0  0  0  0  0  0
   -9.6350   19.7750   65.8380 N   0  0  0  0  0  0  0  0  0  0  0  0
  -10.2690   20.6450   65.0230 F   0  0  0  0  0  0  0  0  0  0  0  0
   -8.3320   19.8700   65.9600 N   0  0  0  0  0  0  0  0  0  0  0  0
   -7.6850   19.0900   66.8210 C   0  0  0  0  0  0  0  0  0  0  0  0
   -8.3630   18.1210   67.6080 C   0  0  0  0  0  0  0  0  0  0  0  0
   -6.3060   19.2750   66.9660 C   0  0  0  0  0  0  0  0  0  0  0  0
   -7.5890   17.4420   68.5760 C   0  0  0  0  0  0  0  0  0  0  0  0
   -6.2060   17.6620   68.7020 C   0  0  0  0  0  0  0  0  0  0  0  0
   -5.4540   16.9230   69.7080 C   0  0  0  0  0  0  0  0  0  0  0  0
   -5.5580   18.5940   67.9220 C   0  0  0  0  0  0  0  0  0  0  0  0
   -5.9820   15.9320   70.1970 O   0  0  0  0  0  0  0  0  0  0  0  0
   -4.0630   17.4260   70.0340 C   0  0  0  0  0  0  0  0  0  0  0  0
   -3.3180   16.7360   70.7080 O   0  0  0  0  0  0  0  0  0  0  0  0
   -3.7510   18.8010   69.4690 C   0  0  0  0  0  0  0  0  0  0  0  0
   -4.2560   18.9540   68.1190 O   0  0  0  0  0  0  0  0  0  0  0  0
   -5.6960   20.1900   66.2000 F   0  0  0  0  0  0  0  0  0  0  0  0
   -4.1730   19.9130   70.4050 C   0  0  0  0  0  0  0  0  0  0  0  0
   -4.9880   20.9460   69.8240 O   0  0  0  0  0  0  0  0  0  0  0  0
   -4.5340   19.5100   71.7360 O   0  0  0  0  0  0  0  0  0  0  0  0
   -3.4650   20.3070   71.6150 C   0  0  0  0  0  0  0  0  0  0  0  0
   -2.2980   20.1840   71.9510 O   0  0  0  0  0  0  0  0  0  0  0  0
  -10.8320   15.6470   66.0490 O   0  0  0  0  0  0  0  0  0  0  0  0
  -10.4690   14.3610   65.4840 C   0  0  0  0  0  0  0  0  0  0  0  0
  -10.0270   13.4890   66.5010 O   0  0  0  0  0  0  0  0  0  0  0  0
   -9.7000   12.2150   66.0630 C   0  0  0  0  0  0  0  0  0  0  0  0
   -8.7700   11.5140   66.7180 C   0  0  0  0  0  0  0  0  0  0  0  0
  -10.3850   11.5830   64.8910 C   0  0  0  0  0  0  0  0  0  0  0  0
   -8.0860   12.0240   67.7970 O   0  0  0  0  0  0  0  0  0  0  0  0
  -11.5080   12.4250   64.2970 C   0  0  0  0  0  0  0  0  0  0  0  0
  -10.0440   10.5230   64.4030 O   0  0  0  0  0  0  0  0  0  0  0  0
  -11.7190   13.8200   64.8310 C   0  0  0  0  0  0  0  0  0  0  0  0
  -12.1720   12.0450   63.3500 O   0  0  0  0  0  0  0  0  0  0  0  0
  -12.7580   14.4570   64.7080 O   0  0  0  0  0  0  0  0  0  0  0  0
  -12.5360   15.3670   73.7620 C   0  0  0  0  0  0  0  0  0  0  0  0
  -11.9580   16.5690   74.3150 O   0  0  0  0  0  0  0  0  0  0  0  0
  -13.3890   16.4170   74.2340 O   0  0  0  0  0  0  0  0  0  0  0  0
  1 40  1  0  0  0  0
  1  2  2  0  0  0  0
  1  6  1  0  0  0  0
  2  3  1  0  0  0  0
  2 17  1  0  0  0  0
  3  4  1  0  0  0  0
  4  5  2  0  0  0  0
  4 15  1  0  0  0  0
  5  6  1  0  0  0  0
  5  7  1  0  0  0  0
  7  8  1  0  0  0  0
  7 13  1  0  0  0  0
  8  9  1  0  0  0  0
  9 10  2  0  0  0  0
  9 11  1  0  0  0  0
 11 12  1  0  0  0  0
 12 13  1  0  0  0  0
 12 16  1  0  0  0  0
 13 14  2  0  0  0  0
 14 15  1  0  0  0  0
 14 52  1  0  0  0  0
 17 18  2  0  0  0  0
 17 23  1  0  0  0  0
 18 19  1  0  0  0  0
 19 20  1  0  0  0  0
 19 21  2  0  0  0  0
 21 22  1  0  0  0  0
 22 23  2  0  0  0  0
 22 24  1  0  0  0  0
 23 25  1  0  0  0  0
 24 28  2  0  0  0  0
 24 34  1  0  0  0  0
 25 26  2  0  0  0  0
 26 27  1  0  0  0  0
 26 28  1  0  0  0  0
 27 29  2  0  0  0  0
 27 30  1  0  0  0  0
 28 33  1  0  0  0  0
 30 31  2  0  0  0  0
 30 32  1  0  0  0  0
 32 33  1  0  0  0  0
 32 35  1  0  0  0  0
 35 36  1  0  0  0  0
 35 37  1  0  0  0  0
 35 38  1  0  0  0  0
 37 38  1  0  0  0  0
 38 39  2  0  0  0  0
 40 41  1  0  0  0  0
 41 42  1  0  0  0  0
 41 49  1  0  0  0  0
 42 43  1  0  0  0  0
 43 44  2  0  0  0  0
 43 45  1  0  0  0  0
 44 46  1  0  0  0  0
 45 47  1  0  0  0  0
 45 48  2  0  0  0  0
 47 49  1  0  0  0  0
 47 50  2  0  0  0  0
 49 51  2  0  0  0  0
 52 53  1  0  0  0  0
 52 54  1  0  0  0  0
 53 54  1  0  0  0  0
M  CHG  3   3   1  15   1  19   1
M  END