
 OpenBabel11232002323D

 53 62  0  0  1  0  0  0  0  0999 V2000
  -10.1940   15.7330   67.8510 C   0  0  0  0  0  0  0  0  0  0  0  0
  -10.0560   16.8930   68.5430 C   0  0  0  0  0  0  0  0  0  0  0  0
  -10.8000   17.1570   69.7070 O   0  0  0  0  0  0  0  0  0  0  0  0
  -11.5760   16.1350   70.2700 C   0  0  0  0  0  0  0  0  0  0  0  0
  -11.8260   14.9960   69.6090 C   0  0  0  0  0  0  0  0  0  0  0  0
  -11.2760   14.7450   68.2510 C   0  0  0  0  0  0  0  0  0  0  0  0
  -12.6620   13.8950   70.2190 C   0  0  0  0  0  0  0  0  0  0  0  0
  -11.8650   12.6720   70.2200 N   0  0  0  0  0  0  0  0  0  0  0  0
  -12.4570   11.5660   70.7250 C   0  0  0  0  0  0  0  0  0  0  0  0
  -12.3570   10.4110   70.1790 N   0  0  0  0  0  0  0  0  0  0  0  0
  -13.1040   11.7520   71.8930 N   0  0  0  0  0  0  0  0  0  0  0  0
  -13.8130   12.9710   72.2230 C   0  0  0  0  0  0  0  0  0  0  0  0
  -13.0810   14.1480   71.6400 C   0  0  0  0  0  0  0  0  0  0  0  0
  -12.7810   15.3190   72.2500 C   0  0  0  0  0  0  0  0  0  0  0  0
  -12.0810   16.2990   71.5410 N   0  0  0  0  0  0  0  0  0  0  0  0
   -9.1750   18.0270   68.1250 C   0  0  0  0  0  0  0  0  0  0  0  0
   -9.7950   19.2090   67.7270 C   0  0  0  0  0  0  0  0  0  0  0  0
   -9.0770   20.2750   67.3490 N   0  0  0  0  0  0  0  0  0  0  0  0
   -9.7180   21.4040   66.9870 F   0  0  0  0  0  0  0  0  0  0  0  0
   -7.7570   20.2760   67.3150 N   0  0  0  0  0  0  0  0  0  0  0  0
   -7.0840   19.1900   67.6990 C   0  0  0  0  0  0  0  0  0  0  0  0
   -7.7600   18.0280   68.1410 C   0  0  0  0  0  0  0  0  0  0  0  0
   -5.6790   19.2110   67.6800 C   0  0  0  0  0  0  0  0  0  0  0  0
   -6.9780   16.9600   68.6200 C   0  0  0  0  0  0  0  0  0  0  0  0
   -5.5780   17.0550   68.6750 C   0  0  0  0  0  0  0  0  0  0  0  0
   -4.9060   18.1480   68.1420 C   0  0  0  0  0  0  0  0  0  0  0  0
   -4.8120   16.0620   69.4360 C   0  0  0  0  0  0  0  0  0  0  0  0
   -3.5270   18.2440   68.1020 O   0  0  0  0  0  0  0  0  0  0  0  0
   -2.8500   16.9660   68.2780 C   0  0  0  0  0  0  0  0  0  0  0  0
   -3.3220   16.1770   69.4180 C   0  0  0  0  0  0  0  0  0  0  0  0
   -2.6960   16.2000   67.1020 O   0  0  0  0  0  0  0  0  0  0  0  0
   -1.4770   16.7100   67.7240 C   0  0  0  0  0  0  0  0  0  0  0  0
   -2.6090   15.6100   70.3330 N   0  0  0  0  0  0  0  0  0  0  0  0
   -0.9060   18.1190   67.1720 O   0  0  0  0  0  0  0  0  0  0  0  0
   -0.5880   16.9720   66.6720 C   0  0  0  0  0  0  0  0  0  0  0  0
    0.1530   16.4730   65.7940 N   0  0  0  0  0  0  0  0  0  0  0  0
   -5.3830   15.1530   70.1620 N   0  0  0  0  0  0  0  0  0  0  0  0
   -5.0590   20.3180   67.2330 F   0  0  0  0  0  0  0  0  0  0  0  0
   -9.3730   15.4130   66.7710 O   0  0  0  0  0  0  0  0  0  0  0  0
   -9.8510   14.3720   65.8770 C   0  0  0  0  0  0  0  0  0  0  0  0
  -10.0970   13.1770   66.6090 O   0  0  0  0  0  0  0  0  0  0  0  0
  -10.6540   12.1170   65.9120 C   0  0  0  0  0  0  0  0  0  0  0  0
  -10.7080   10.8910   66.4500 C   0  0  0  0  0  0  0  0  0  0  0  0
  -11.3070   12.2930   64.5860 C   0  0  0  0  0  0  0  0  0  0  0  0
  -10.2140   10.6020   67.6950 O   0  0  0  0  0  0  0  0  0  0  0  0
  -11.6750   13.7300   64.2760 C   0  0  0  0  0  0  0  0  0  0  0  0
  -11.5360   11.3830   63.8090 O   0  0  0  0  0  0  0  0  0  0  0  0
  -11.0820   14.8360   65.1200 C   0  0  0  0  0  0  0  0  0  0  0  0
  -12.4270   13.9950   63.3530 O   0  0  0  0  0  0  0  0  0  0  0  0
  -11.5170   15.9770   65.1020 O   0  0  0  0  0  0  0  0  0  0  0  0
  -13.1360   15.6390   73.6550 C   0  0  0  0  0  0  0  0  0  0  0  0
  -12.3240   15.2050   74.7600 O   0  0  0  0  0  0  0  0  0  0  0  0
  -12.4030   16.6040   74.4240 O   0  0  0  0  0  0  0  0  0  0  0  0
  1 39  1  0  0  0  0
  1  2  2  0  0  0  0
  1  6  1  0  0  0  0
  2  3  1  0  0  0  0
  2 16  1  0  0  0  0
  3  4  1  0  0  0  0
  4  5  2  0  0  0  0
  4 15  1  0  0  0  0
  5  6  1  0  0  0  0
  5  7  1  0  0  0  0
  7  8  1  0  0  0  0
  7 13  1  0  0  0  0
  8  9  1  0  0  0  0
  9 10  2  0  0  0  0
  9 11  1  0  0  0  0
 11 12  1  0  0  0  0
 12 13  1  0  0  0  0
 13 14  2  0  0  0  0
 14 15  1  0  0  0  0
 14 51  1  0  0  0  0
 16 17  2  0  0  0  0
 16 22  1  0  0  0  0
 17 18  1  0  0  0  0
 18 19  1  0  0  0  0
 18 20  2  0  0  0  0
 20 21  1  0  0  0  0
 21 22  2  0  0  0  0
 21 23  1  0  0  0  0
 22 24  1  0  0  0  0
 23 26  2  0  0  0  0
 23 38  1  0  0  0  0
 24 25  2  0  0  0  0
 25 26  1  0  0  0  0
 25 27  1  0  0  0  0
 26 28  1  0  0  0  0
 27 30  1  0  0  0  0
 27 37  2  0  0  0  0
 28 29  1  0  0  0  0
 29 30  1  0  0  0  0
 29 31  1  0  0  0  0
 29 32  1  0  0  0  0
 30 33  2  0  0  0  0
 31 32  1  0  0  0  0
 32 34  1  0  0  0  0
 32 35  1  0  0  0  0
 34 35  1  0  0  0  0
 35 36  2  0  0  0  0
 39 40  1  0  0  0  0
 40 41  1  0  0  0  0
 40 48  1  0  0  0  0
 41 42  1  0  0  0  0
 42 43  2  0  0  0  0
 42 44  1  0  0  0  0
 43 45  1  0  0  0  0
 44 46  1  0  0  0  0
 44 47  2  0  0  0  0
 46 48  1  0  0  0  0
 46 49  2  0  0  0  0
 48 50  2  0  0  0  0
 51 52  1  0  0  0  0
 51 53  1  0  0  0  0
 52 53  1  0  0  0  0
M  CHG  1  18   1
M  END