
 OpenBabel11222020233D

 54 62  0  0  1  0  0  0  0  0999 V2000
  -10.1870   15.3020   67.6520 C   0  0  0  0  0  0  0  0  0  0  0  0
  -10.3920   16.5320   68.1900 C   0  0  0  0  0  0  0  0  0  0  0  0
  -11.2400   16.7290   69.2730 O   0  0  0  0  0  0  0  0  0  0  0  0
  -11.7140   15.5970   70.0050 C   0  0  0  0  0  0  0  0  0  0  0  0
  -12.0290   14.3800   69.1500 C   0  0  0  0  0  0  0  0  0  0  0  0
  -10.8930   14.0800   68.1780 C   0  0  0  0  0  0  0  0  0  0  0  0
  -12.2460   13.2410   70.1180 C   0  0  0  0  0  0  0  0  0  0  0  0
  -11.9770   12.0240   69.7760 N   0  0  0  0  0  0  0  0  0  0  0  0
  -12.1410   11.0690   70.7620 C   0  0  0  0  0  0  0  0  0  0  0  0
  -11.2820   10.2260   70.9380 O   0  0  0  0  0  0  0  0  0  0  0  0
  -13.2400   11.1630   71.5950 N   0  0  0  0  0  0  0  0  0  0  0  0
  -13.5270   12.3620   71.9380 C   0  0  0  0  0  0  0  0  0  0  0  0
  -12.7390   13.5630   71.5090 C   0  0  0  0  0  0  0  0  0  0  0  0
  -13.4810   14.9090   71.5400 C   0  0  0  0  0  0  0  0  0  0  0  0
  -12.8690   15.9350   70.7450 O   0  0  0  0  0  0  0  0  0  0  0  0
  -14.5600   12.5800   72.7490 O   0  0  0  0  0  0  0  0  0  0  0  0
   -9.7370   17.8100   67.6890 C   0  0  0  0  0  0  0  0  0  0  0  0
  -10.4220   18.6180   66.7800 C   0  0  0  0  0  0  0  0  0  0  0  0
   -9.9120   19.7630   66.3170 N   0  0  0  0  0  0  0  0  0  0  0  0
  -10.6430   20.5020   65.4600 F   0  0  0  0  0  0  0  0  0  0  0  0
   -8.7130   20.1900   66.6510 N   0  0  0  0  0  0  0  0  0  0  0  0
   -7.9540   19.4580   67.4660 C   0  0  0  0  0  0  0  0  0  0  0  0
   -8.4160   18.2410   68.0200 C   0  0  0  0  0  0  0  0  0  0  0  0
   -6.6590   19.9050   67.7620 C   0  0  0  0  0  0  0  0  0  0  0  0
   -7.5010   17.5380   68.8400 C   0  0  0  0  0  0  0  0  0  0  0  0
   -6.1860   17.9760   69.0520 C   0  0  0  0  0  0  0  0  0  0  0  0
   -5.2400   17.0870   69.7260 C   0  0  0  0  0  0  0  0  0  0  0  0
   -5.7630   19.1850   68.5540 C   0  0  0  0  0  0  0  0  0  0  0  0
   -5.5660   15.9350   69.9830 O   0  0  0  0  0  0  0  0  0  0  0  0
   -3.8740   17.6470   70.0460 C   0  0  0  0  0  0  0  0  0  0  0  0
   -3.0370   16.9490   70.5960 O   0  0  0  0  0  0  0  0  0  0  0  0
   -3.7350   19.1420   69.8260 C   0  0  0  0  0  0  0  0  0  0  0  0
   -4.5080   19.6810   68.7380 O   0  0  0  0  0  0  0  0  0  0  0  0
   -6.2510   21.0680   67.2260 F   0  0  0  0  0  0  0  0  0  0  0  0
   -3.9880   19.9200   71.1030 C   0  0  0  0  0  0  0  0  0  0  0  0
   -5.1050   19.5160   72.0030 N   0  0  0  0  0  0  0  0  0  0  0  0
   -2.7870   20.2770   71.7940 O   0  0  0  0  0  0  0  0  0  0  0  0
   -3.5070   21.2990   71.2860 C   0  0  0  0  0  0  0  0  0  0  0  0
   -4.0040   22.2590   71.8390 O   0  0  0  0  0  0  0  0  0  0  0  0
   -9.3620   15.1290   66.5490 O   0  0  0  0  0  0  0  0  0  0  0  0
   -9.7480   14.2210   65.4780 C   0  0  0  0  0  0  0  0  0  0  0  0
  -10.1620   12.9740   66.0080 O   0  0  0  0  0  0  0  0  0  0  0  0
  -10.6280   12.0980   65.0390 C   0  0  0  0  0  0  0  0  0  0  0  0
  -10.2850   10.8060   65.0460 C   0  0  0  0  0  0  0  0  0  0  0  0
  -11.5630   12.5740   63.9850 C   0  0  0  0  0  0  0  0  0  0  0  0
   -9.4270   10.2760   65.9750 O   0  0  0  0  0  0  0  0  0  0  0  0
  -11.9060   14.0380   64.1500 C   0  0  0  0  0  0  0  0  0  0  0  0
  -11.9660   11.9150   63.0470 O   0  0  0  0  0  0  0  0  0  0  0  0
  -10.8510   14.9540   64.7220 C   0  0  0  0  0  0  0  0  0  0  0  0
  -13.0140   14.4700   63.8880 O   0  0  0  0  0  0  0  0  0  0  0  0
  -10.8790   16.1700   64.5580 O   0  0  0  0  0  0  0  0  0  0  0  0
  -13.6850   15.4200   72.9460 C   0  0  0  0  0  0  0  0  0  0  0  0
  -12.6360   15.0740   73.8520 O   0  0  0  0  0  0  0  0  0  0  0  0
  -12.7630   16.4290   73.3710 O   0  0  0  0  0  0  0  0  0  0  0  0
  1 40  1  0  0  0  0
  1  2  2  0  0  0  0
  1  6  1  0  0  0  0
  2  3  1  0  0  0  0
  2 17  1  0  0  0  0
  3  4  1  0  0  0  0
  4  5  1  0  0  0  0
  4 15  1  0  0  0  0
  5  6  1  0  0  0  0
  5  7  1  0  0  0  0
  7  8  2  0  0  0  0
  7 13  1  0  0  0  0
  8  9  1  0  0  0  0
  9 10  2  0  0  0  0
  9 11  1  0  0  0  0
 11 12  2  0  0  0  0
 12 13  1  0  0  0  0
 12 16  1  0  0  0  0
 13 14  1  0  0  0  0
 14 15  1  0  0  0  0
 14 52  1  0  0  0  0
 17 18  2  0  0  0  0
 17 23  1  0  0  0  0
 18 19  1  0  0  0  0
 19 20  1  0  0  0  0
 19 21  2  0  0  0  0
 21 22  1  0  0  0  0
 22 23  2  0  0  0  0
 22 24  1  0  0  0  0
 23 25  1  0  0  0  0
 24 28  2  0  0  0  0
 24 34  1  0  0  0  0
 25 26  2  0  0  0  0
 26 27  1  0  0  0  0
 26 28  1  0  0  0  0
 27 29  2  0  0  0  0
 27 30  1  0  0  0  0
 28 33  1  0  0  0  0
 30 31  2  0  0  0  0
 30 32  1  0  0  0  0
 32 33  1  0  0  0  0
 32 35  1  0  0  0  0
 35 36  1  0  0  0  0
 35 37  1  0  0  0  0
 35 38  1  0  0  0  0
 37 38  1  0  0  0  0
 38 39  2  0  0  0  0
 40 41  1  0  0  0  0
 41 42  1  0  0  0  0
 41 49  1  0  0  0  0
 42 43  1  0  0  0  0
 43 44  2  0  0  0  0
 43 45  1  0  0  0  0
 44 46  1  0  0  0  0
 45 47  1  0  0  0  0
 45 48  2  0  0  0  0
 47 49  1  0  0  0  0
 47 50  2  0  0  0  0
 49 51  2  0  0  0  0
 52 53  1  0  0  0  0
 52 54  1  0  0  0  0
 53 54  1  0  0  0  0
M  CHG  2  15   1  19   1
M  END