
 OpenBabel09222003483D

 52 60  0  0  1  0  0  0  0  0999 V2000
  -12.8680   15.1140   72.1480 C   0  0  0  0  0  0  0  0  0  0  0  0
  -12.3700   16.0950   71.3620 N   0  0  0  0  0  0  0  0  0  0  0  0
  -11.8070   15.7440   70.1910 C   0  0  0  0  0  0  0  0  0  0  0  0
  -11.3690   16.7940   69.4250 O   0  0  0  0  0  0  0  0  0  0  0  0
  -10.5010   16.5760   68.3390 C   0  0  0  0  0  0  0  0  0  0  0  0
  -10.3280   15.3310   67.8250 C   0  0  0  0  0  0  0  0  0  0  0  0
  -11.0620   14.1610   68.4440 C   0  0  0  0  0  0  0  0  0  0  0  0
  -11.7050   14.4400   69.7600 C   0  0  0  0  0  0  0  0  0  0  0  0
  -12.2750   13.4500   70.5680 C   0  0  0  0  0  0  0  0  0  0  0  0
  -12.8840   13.7760   71.7790 C   0  0  0  0  0  0  0  0  0  0  0  0
  -13.4290   12.6820   72.6390 C   0  0  0  0  0  0  0  0  0  0  0  0
  -13.6820   11.4700   71.8920 N   0  0  0  0  0  0  0  0  0  0  0  0
  -12.9720   11.1180   70.7930 C   0  0  0  0  0  0  0  0  0  0  0  0
  -12.9960    9.9770   70.3430 O   0  0  0  0  0  0  0  0  0  0  0  0
  -12.2650   12.1040   70.1760 N   0  0  0  0  0  0  0  0  0  0  0  0
   -9.8040   17.8630   67.9920 C   0  0  0  0  0  0  0  0  0  0  0  0
  -10.6760   18.7360   67.4030 N   0  0  0  0  0  0  0  0  0  0  0  0
  -10.2350   19.9300   66.9750 C   0  0  0  0  0  0  0  0  0  0  0  0
   -8.9370   20.3540   67.1210 C   0  0  0  0  0  0  0  0  0  0  0  0
   -8.0270   19.5100   67.7450 C   0  0  0  0  0  0  0  0  0  0  0  0
   -8.4350   18.2220   68.1760 C   0  0  0  0  0  0  0  0  0  0  0  0
   -6.7150   19.9720   67.9620 C   0  0  0  0  0  0  0  0  0  0  0  0
   -7.4200   17.4350   68.7560 C   0  0  0  0  0  0  0  0  0  0  0  0
   -6.1410   17.9320   69.0450 C   0  0  0  0  0  0  0  0  0  0  0  0
   -5.7910   19.2140   68.6680 C   0  0  0  0  0  0  0  0  0  0  0  0
   -5.1940   17.1550   69.8530 C   0  0  0  0  0  0  0  0  0  0  0  0
   -4.6130   19.8330   68.9760 O   0  0  0  0  0  0  0  0  0  0  0  0
   -3.8370   19.2610   70.0430 C   0  0  0  0  0  0  0  0  0  0  0  0
   -3.8250   17.7540   70.0390 C   0  0  0  0  0  0  0  0  0  0  0  0
   -2.8400   17.0550   70.2170 O   0  0  0  0  0  0  0  0  0  0  0  0
   -5.5230   16.1460   70.4510 O   0  0  0  0  0  0  0  0  0  0  0  0
   -4.2800   19.7990   71.3810 C   0  0  0  0  0  0  0  0  0  0  0  0
   -5.1540   18.9560   72.1670 O   0  0  0  0  0  0  0  0  0  0  0  0
   -3.2290   20.4430   72.1370 O   0  0  0  0  0  0  0  0  0  0  0  0
   -4.2360   21.1990   71.7230 C   0  0  0  0  0  0  0  0  0  0  0  0
   -4.2980   22.2280   71.0700 O   0  0  0  0  0  0  0  0  0  0  0  0
   -9.3940   15.0420   66.8330 O   0  0  0  0  0  0  0  0  0  0  0  0
   -9.5340   13.8230   66.0770 C   0  0  0  0  0  0  0  0  0  0  0  0
  -10.9290   13.5240   65.9290 O   0  0  0  0  0  0  0  0  0  0  0  0
  -11.2450   12.4220   65.0600 C   0  0  0  0  0  0  0  0  0  0  0  0
  -10.2200   11.3050   65.0660 C   0  0  0  0  0  0  0  0  0  0  0  0
   -9.9680   10.5400   64.1480 O   0  0  0  0  0  0  0  0  0  0  0  0
   -9.3840   11.3040   66.3070 C   0  0  0  0  0  0  0  0  0  0  0  0
   -9.1720   10.2650   66.9040 O   0  0  0  0  0  0  0  0  0  0  0  0
   -8.7760   12.6310   66.6920 C   0  0  0  0  0  0  0  0  0  0  0  0
   -7.7140   12.6880   67.2950 O   0  0  0  0  0  0  0  0  0  0  0  0
  -11.5460   12.9190   63.6750 C   0  0  0  0  0  0  0  0  0  0  0  0
  -12.5160   13.9670   63.6140 O   0  0  0  0  0  0  0  0  0  0  0  0
  -12.8580   12.6280   63.1880 O   0  0  0  0  0  0  0  0  0  0  0  0
  -13.3790   15.4570   73.3940 O   0  0  0  0  0  0  0  0  0  0  0  0
  -12.4780   15.6480   74.4180 C   0  0  0  0  0  0  0  0  0  0  0  0
  -12.2730   16.8460   74.9700 C   0  0  0  0  0  0  0  0  0  0  0  0
  1 50  1  0  0  0  0
  1  2  2  0  0  0  0
  1 10  1  0  0  0  0
  2  3  1  0  0  0  0
  3  4  1  0  0  0  0
  3  8  2  0  0  0  0
  4  5  1  0  0  0  0
  5  6  2  0  0  0  0
  5 16  1  0  0  0  0
  6  7  1  0  0  0  0
  6 37  1  0  0  0  0
  7  8  1  0  0  0  0
  8  9  1  0  0  0  0
  9 10  2  0  0  0  0
  9 15  1  0  0  0  0
 10 11  1  0  0  0  0
 11 12  1  0  0  0  0
 12 13  1  0  0  0  0
 13 14  2  0  0  0  0
 13 15  1  0  0  0  0
 16 17  2  0  0  0  0
 16 21  1  0  0  0  0
 17 18  1  0  0  0  0
 18 19  2  0  0  0  0
 19 20  1  0  0  0  0
 20 21  2  0  0  0  0
 20 22  1  0  0  0  0
 21 23  1  0  0  0  0
 22 25  2  0  0  0  0
 23 24  2  0  0  0  0
 24 25  1  0  0  0  0
 24 26  1  0  0  0  0
 25 27  1  0  0  0  0
 26 29  1  0  0  0  0
 26 31  2  0  0  0  0
 27 28  1  0  0  0  0
 28 29  1  0  0  0  0
 28 32  1  0  0  0  0
 29 30  2  0  0  0  0
 32 33  1  0  0  0  0
 32 34  1  0  0  0  0
 32 35  1  0  0  0  0
 34 35  1  0  0  0  0
 35 36  2  0  0  0  0
 37 38  1  0  0  0  0
 38 39  1  0  0  0  0
 38 45  1  0  0  0  0
 39 40  1  0  0  0  0
 40 41  1  0  0  0  0
 40 47  1  0  0  0  0
 41 42  2  0  0  0  0
 41 43  1  0  0  0  0
 43 44  2  0  0  0  0
 43 45  1  0  0  0  0
 45 46  2  0  0  0  0
 47 48  1  0  0  0  0
 47 49  1  0  0  0  0
 48 49  1  0  0  0  0
 50 51  1  0  0  0  0
 51 52  2  0  0  0  0
M  END
