
 OpenBabel11262001513D

 54 62  0  0  1  0  0  0  0  0999 V2000
  -10.8360   15.7130   67.3310 C   0  0  0  0  0  0  0  0  0  0  0  0
  -10.6940   16.8850   67.9840 C   0  0  0  0  0  0  0  0  0  0  0  0
  -11.1400   17.1150   69.2830 O   0  0  0  0  0  0  0  0  0  0  0  0
  -11.6590   16.0620   70.0070 C   0  0  0  0  0  0  0  0  0  0  0  0
  -11.7760   14.8030   69.4660 C   0  0  0  0  0  0  0  0  0  0  0  0
  -11.4460   14.5360   68.0370 C   0  0  0  0  0  0  0  0  0  0  0  0
  -12.2450   13.8070   70.3090 C   0  0  0  0  0  0  0  0  0  0  0  0
  -12.3750   12.5110   69.7910 O   0  0  0  0  0  0  0  0  0  0  0  0
  -12.4120   11.3990   70.6330 C   0  0  0  0  0  0  0  0  0  0  0  0
  -12.2440   10.2700   70.1930 O   0  0  0  0  0  0  0  0  0  0  0  0
  -12.5840   11.6550   71.9500 O   0  0  0  0  0  0  0  0  0  0  0  0
  -13.1590   12.8910   72.3760 C   0  0  0  0  0  0  0  0  0  0  0  0
  -12.6170   14.0530   71.6190 C   0  0  0  0  0  0  0  0  0  0  0  0
  -12.5290   15.3650   72.0910 C   0  0  0  0  0  0  0  0  0  0  0  0
  -12.0330   16.3500   71.2770 N   0  0  0  0  0  0  0  0  0  0  0  0
  -14.5730   12.8360   72.2790 O   0  0  0  0  0  0  0  0  0  0  0  0
  -10.0130   18.0510   67.3880 C   0  0  0  0  0  0  0  0  0  0  0  0
  -10.7140   18.7780   66.4250 C   0  0  0  0  0  0  0  0  0  0  0  0
  -10.0810   19.8420   65.8260 C   0  0  0  0  0  0  0  0  0  0  0  0
  -10.7500   20.5450   64.9010 F   0  0  0  0  0  0  0  0  0  0  0  0
   -8.8230   20.2220   66.1040 N   0  0  0  0  0  0  0  0  0  0  0  0
   -8.1330   19.5330   67.0310 C   0  0  0  0  0  0  0  0  0  0  0  0
   -8.6900   18.4310   67.7220 C   0  0  0  0  0  0  0  0  0  0  0  0
   -6.8160   19.8970   67.3240 C   0  0  0  0  0  0  0  0  0  0  0  0
   -7.9040   17.7620   68.6910 C   0  0  0  0  0  0  0  0  0  0  0  0
   -6.5890   18.1590   68.9510 C   0  0  0  0  0  0  0  0  0  0  0  0
   -5.7760   17.4190   69.9200 C   0  0  0  0  0  0  0  0  0  0  0  0
   -6.0340   19.2290   68.2730 C   0  0  0  0  0  0  0  0  0  0  0  0
   -6.2430   16.5660   70.6560 O   0  0  0  0  0  0  0  0  0  0  0  0
   -4.3110   17.7690   69.9690 C   0  0  0  0  0  0  0  0  0  0  0  0
   -3.4890   16.9620   70.3780 O   0  0  0  0  0  0  0  0  0  0  0  0
   -4.0030   19.1830   69.5520 C   0  0  0  0  0  0  0  0  0  0  0  0
   -4.7550   19.6800   68.4430 O   0  0  0  0  0  0  0  0  0  0  0  0
   -6.2620   20.9300   66.6640 F   0  0  0  0  0  0  0  0  0  0  0  0
   -4.1280   20.1200   70.7160 C   0  0  0  0  0  0  0  0  0  0  0  0
   -5.0920   21.1860   70.5950 O   0  0  0  0  0  0  0  0  0  0  0  0
   -4.0850   19.5260   72.0150 O   0  0  0  0  0  0  0  0  0  0  0  0
   -3.0250   20.2790   71.6570 C   0  0  0  0  0  0  0  0  0  0  0  0
   -1.8520   19.9820   71.6020 O   0  0  0  0  0  0  0  0  0  0  0  0
  -10.3540   15.5400   66.0370 O   0  0  0  0  0  0  0  0  0  0  0  0
   -9.9500   14.2010   65.6730 C   0  0  0  0  0  0  0  0  0  0  0  0
   -9.9500   13.3300   66.8050 O   0  0  0  0  0  0  0  0  0  0  0  0
   -9.9170   11.9700   66.5560 C   0  0  0  0  0  0  0  0  0  0  0  0
   -9.6360   11.1110   67.5440 C   0  0  0  0  0  0  0  0  0  0  0  0
  -10.2100   11.3920   65.2010 C   0  0  0  0  0  0  0  0  0  0  0  0
   -9.3300   11.5150   68.8180 O   0  0  0  0  0  0  0  0  0  0  0  0
  -10.3470   12.3730   64.0650 C   0  0  0  0  0  0  0  0  0  0  0  0
  -10.2360   10.1740   65.0200 O   0  0  0  0  0  0  0  0  0  0  0  0
  -10.8750   13.6980   64.5680 C   0  0  0  0  0  0  0  0  0  0  0  0
  -11.1570   11.9200   63.0650 F   0  0  0  0  0  0  0  0  0  0  0  0
  -12.1330   13.5240   65.0680 F   0  0  0  0  0  0  0  0  0  0  0  0
  -13.0100   15.8040   73.4610 C   0  0  0  0  0  0  0  0  0  0  0  0
  -12.2920   15.4180   74.6430 O   0  0  0  0  0  0  0  0  0  0  0  0
  -12.1960   16.7660   74.1540 O   0  0  0  0  0  0  0  0  0  0  0  0
  1 40  1  0  0  0  0
  1  2  2  0  0  0  0
  1  6  1  0  0  0  0
  2  3  1  0  0  0  0
  2 17  1  0  0  0  0
  3  4  1  0  0  0  0
  4  5  2  0  0  0  0
  4 15  1  0  0  0  0
  5  6  1  0  0  0  0
  5  7  1  0  0  0  0
  7  8  1  0  0  0  0
  7 13  2  0  0  0  0
  8  9  1  0  0  0  0
  9 10  2  0  0  0  0
  9 11  1  0  0  0  0
 11 12  1  0  0  0  0
 12 13  1  0  0  0  0
 12 16  1  0  0  0  0
 13 14  1  0  0  0  0
 14 15  2  0  0  0  0
 14 52  1  0  0  0  0
 17 18  2  0  0  0  0
 17 23  1  0  0  0  0
 18 19  1  0  0  0  0
 19 20  1  0  0  0  0
 19 21  2  0  0  0  0
 21 22  1  0  0  0  0
 22 23  2  0  0  0  0
 22 24  1  0  0  0  0
 23 25  1  0  0  0  0
 24 28  2  0  0  0  0
 24 34  1  0  0  0  0
 25 26  2  0  0  0  0
 26 27  1  0  0  0  0
 26 28  1  0  0  0  0
 27 29  2  0  0  0  0
 27 30  1  0  0  0  0
 28 33  1  0  0  0  0
 30 31  2  0  0  0  0
 30 32  1  0  0  0  0
 32 33  1  0  0  0  0
 32 35  1  0  0  0  0
 35 36  1  0  0  0  0
 35 37  1  0  0  0  0
 35 38  1  0  0  0  0
 37 38  1  0  0  0  0
 38 39  2  0  0  0  0
 40 41  1  0  0  0  0
 41 42  1  0  0  0  0
 41 49  1  0  0  0  0
 42 43  1  0  0  0  0
 43 44  2  0  0  0  0
 43 45  1  0  0  0  0
 44 46  1  0  0  0  0
 45 47  1  0  0  0  0
 45 48  2  0  0  0  0
 47 49  1  0  0  0  0
 47 50  1  0  0  0  0
 49 51  1  0  0  0  0
 52 53  1  0  0  0  0
 52 54  1  0  0  0  0
 53 54  1  0  0  0  0
M  END
