
 OpenBabel11212021023D

 54 62  0  0  1  0  0  0  0  0999 V2000
  -10.9030   15.6810   67.4890 C   0  0  0  0  0  0  0  0  0  0  0  0
  -10.2850   16.6600   68.1960 C   0  0  0  0  0  0  0  0  0  0  0  0
  -10.3080   16.6620   69.6050 O   0  0  0  0  0  0  0  0  0  0  0  0
  -11.1310   15.7810   70.3130 C   0  0  0  0  0  0  0  0  0  0  0  0
  -11.7190   14.7560   69.6770 C   0  0  0  0  0  0  0  0  0  0  0  0
  -11.5980   14.5490   68.2030 C   0  0  0  0  0  0  0  0  0  0  0  0
  -12.6090   13.7790   70.3790 C   0  0  0  0  0  0  0  0  0  0  0  0
  -11.9930   12.5050   70.2900 O   0  0  0  0  0  0  0  0  0  0  0  0
  -12.6350   11.4990   70.9160 C   0  0  0  0  0  0  0  0  0  0  0  0
  -12.3580   10.2870   70.6260 N   0  0  0  0  0  0  0  0  0  0  0  0
  -13.5610   11.8040   71.8410 O   0  0  0  0  0  0  0  0  0  0  0  0
  -13.6830   13.1000   72.4250 C   0  0  0  0  0  0  0  0  0  0  0  0
  -12.7620   14.0950   71.8140 C   0  0  0  0  0  0  0  0  0  0  0  0
  -12.1500   15.1450   72.4080 C   0  0  0  0  0  0  0  0  0  0  0  0
  -11.3290   15.9910   71.6680 O   0  0  0  0  0  0  0  0  0  0  0  0
  -14.9790   13.6060   72.1540 O   0  0  0  0  0  0  0  0  0  0  0  0
   -9.5690   17.8320   67.5670 C   0  0  0  0  0  0  0  0  0  0  0  0
  -10.2470   18.6350   66.6470 C   0  0  0  0  0  0  0  0  0  0  0  0
   -9.6830   19.7250   66.1240 N   0  0  0  0  0  0  0  0  0  0  0  0
  -10.3830   20.4630   65.2410 F   0  0  0  0  0  0  0  0  0  0  0  0
   -8.4690   20.1200   66.4460 N   0  0  0  0  0  0  0  0  0  0  0  0
   -7.7240   19.4040   67.2980 C   0  0  0  0  0  0  0  0  0  0  0  0
   -8.2270   18.2130   67.8610 C   0  0  0  0  0  0  0  0  0  0  0  0
   -6.4240   19.8380   67.6610 C   0  0  0  0  0  0  0  0  0  0  0  0
   -7.3500   17.4810   68.6930 C   0  0  0  0  0  0  0  0  0  0  0  0
   -6.0530   17.9030   68.9960 C   0  0  0  0  0  0  0  0  0  0  0  0
   -5.1990   17.0210   69.7950 C   0  0  0  0  0  0  0  0  0  0  0  0
   -5.5890   19.1120   68.5310 C   0  0  0  0  0  0  0  0  0  0  0  0
   -5.5960   15.9020   70.0990 O   0  0  0  0  0  0  0  0  0  0  0  0
   -3.8340   17.5510   70.1680 C   0  0  0  0  0  0  0  0  0  0  0  0
   -2.9860   16.7950   70.6140 O   0  0  0  0  0  0  0  0  0  0  0  0
   -3.6790   19.0490   69.9960 C   0  0  0  0  0  0  0  0  0  0  0  0
   -4.3610   19.6100   68.8600 O   0  0  0  0  0  0  0  0  0  0  0  0
   -5.7830   21.4980   66.9520 Br  0  0  0  0  0  0  0  0  0  0  0  0
   -4.0780   19.7620   71.2480 C   0  0  0  0  0  0  0  0  0  0  0  0
   -5.1970   19.1880   71.9820 O   0  0  0  0  0  0  0  0  0  0  0  0
   -2.9970   20.2450   72.0400 O   0  0  0  0  0  0  0  0  0  0  0  0
   -3.8100   21.1820   71.5030 C   0  0  0  0  0  0  0  0  0  0  0  0
   -4.5230   21.9930   72.0380 O   0  0  0  0  0  0  0  0  0  0  0  0
  -10.9030   15.6710   66.0970 O   0  0  0  0  0  0  0  0  0  0  0  0
  -10.6260   14.4290   65.4010 C   0  0  0  0  0  0  0  0  0  0  0  0
  -10.3110   13.4040   66.3380 O   0  0  0  0  0  0  0  0  0  0  0  0
   -9.9950   12.2050   65.7180 C   0  0  0  0  0  0  0  0  0  0  0  0
   -8.9280   11.4900   66.0880 C   0  0  0  0  0  0  0  0  0  0  0  0
  -10.8720   11.6940   64.6270 C   0  0  0  0  0  0  0  0  0  0  0  0
   -8.0560   11.9100   67.0610 O   0  0  0  0  0  0  0  0  0  0  0  0
  -12.0720   12.5910   64.4200 C   0  0  0  0  0  0  0  0  0  0  0  0
  -10.6340   10.7330   63.9230 O   0  0  0  0  0  0  0  0  0  0  0  0
  -11.8580   14.0820   64.5680 C   0  0  0  0  0  0  0  0  0  0  0  0
  -13.1910   12.1340   64.2670 O   0  0  0  0  0  0  0  0  0  0  0  0
  -12.6050   14.9040   64.0550 O   0  0  0  0  0  0  0  0  0  0  0  0
  -12.2870   15.4570   73.8510 C   0  0  0  0  0  0  0  0  0  0  0  0
  -12.0840   16.7920   74.3320 O   0  0  0  0  0  0  0  0  0  0  0  0
  -13.4060   16.2210   74.3290 O   0  0  0  0  0  0  0  0  0  0  0  0
  1 40  1  0  0  0  0
  1  2  2  0  0  0  0
  1  6  1  0  0  0  0
  2  3  1  0  0  0  0
  2 17  1  0  0  0  0
  3  4  1  0  0  0  0
  4  5  2  0  0  0  0
  4 15  1  0  0  0  0
  5  6  1  0  0  0  0
  5  7  1  0  0  0  0
  7  8  1  0  0  0  0
  7 13  1  0  0  0  0
  8  9  1  0  0  0  0
  9 10  2  0  0  0  0
  9 11  1  0  0  0  0
 11 12  1  0  0  0  0
 12 13  1  0  0  0  0
 12 16  1  0  0  0  0
 13 14  2  0  0  0  0
 14 15  1  0  0  0  0
 14 52  1  0  0  0  0
 17 18  2  0  0  0  0
 17 23  1  0  0  0  0
 18 19  1  0  0  0  0
 19 20  1  0  0  0  0
 19 21  2  0  0  0  0
 21 22  1  0  0  0  0
 22 23  2  0  0  0  0
 22 24  1  0  0  0  0
 23 25  1  0  0  0  0
 24 28  2  0  0  0  0
 24 34  1  0  0  0  0
 25 26  2  0  0  0  0
 26 27  1  0  0  0  0
 26 28  1  0  0  0  0
 27 29  2  0  0  0  0
 27 30  1  0  0  0  0
 28 33  1  0  0  0  0
 30 31  2  0  0  0  0
 30 32  1  0  0  0  0
 32 33  1  0  0  0  0
 32 35  1  0  0  0  0
 35 36  1  0  0  0  0
 35 37  1  0  0  0  0
 35 38  1  0  0  0  0
 37 38  1  0  0  0  0
 38 39  2  0  0  0  0
 40 41  1  0  0  0  0
 41 42  1  0  0  0  0
 41 49  1  0  0  0  0
 42 43  1  0  0  0  0
 43 44  2  0  0  0  0
 43 45  1  0  0  0  0
 44 46  1  0  0  0  0
 45 47  1  0  0  0  0
 45 48  2  0  0  0  0
 47 49  1  0  0  0  0
 47 50  2  0  0  0  0
 49 51  2  0  0  0  0
 52 53  1  0  0  0  0
 52 54  1  0  0  0  0
 53 54  1  0  0  0  0
M  CHG  2  15   1  19   1
M  END