
 OpenBabel05292106593D

 49 57  0  0  1  0  0  0  0  0999 V2000
  -11.4430   14.3070   67.0420 C   0  0  0  0  0  0  0  0  0  0  0  0
  -11.8480   13.2560   67.8870 C   0  0  0  0  0  0  0  0  0  0  0  0
  -11.6760   13.2970   69.2760 C   0  0  0  0  0  0  0  0  0  0  0  0
  -11.1240   14.4350   69.8650 C   0  0  0  0  0  0  0  0  0  0  0  0
  -10.7870   15.4970   69.0220 C   0  0  0  0  0  0  0  0  0  0  0  0
  -10.9400   15.4890   67.6290 C   0  0  0  0  0  0  0  0  0  0  0  0
  -10.4910   16.7720   67.2100 C   0  0  0  0  0  0  0  0  0  0  0  0
  -10.0870   17.4430   68.3740 C   0  0  0  0  0  0  0  0  0  0  0  0
  -10.2740   16.6810   69.4680 O   0  0  0  0  0  0  0  0  0  0  0  0
   -9.7550   18.9140   68.4980 C   0  0  0  0  0  0  0  0  0  0  0  0
  -10.2790   19.4290   67.1790 C   0  0  0  0  0  0  0  0  0  0  0  0
   -9.3150   18.7370   66.0940 C   0  0  0  0  0  0  0  0  0  0  0  0
  -10.3690   17.5100   65.9140 C   0  0  0  0  0  0  0  0  0  0  0  0
  -10.9550   17.2320   64.8820 O   0  0  0  0  0  0  0  0  0  0  0  0
   -8.1010   17.6470   66.0770 C   0  0  0  0  0  0  0  0  0  0  0  0
   -8.4820   19.8510   65.9900 O   0  0  0  0  0  0  0  0  0  0  0  0
   -7.7950   19.9930   67.2380 C   0  0  0  0  0  0  0  0  0  0  0  0
   -8.3140   19.4180   68.4530 C   0  0  0  0  0  0  0  0  0  0  0  0
   -7.5080   19.4270   69.5900 C   0  0  0  0  0  0  0  0  0  0  0  0
   -6.2270   19.9950   69.5280 C   0  0  0  0  0  0  0  0  0  0  0  0
   -5.7290   20.5740   68.3400 C   0  0  0  0  0  0  0  0  0  0  0  0
   -6.5420   20.5900   67.1950 C   0  0  0  0  0  0  0  0  0  0  0  0
  -11.5410   14.1790   65.6310 O   0  0  0  0  0  0  0  0  0  0  0  0
  -12.1580   13.0840   65.0420 C   0  0  0  0  0  0  0  0  0  0  0  0
  -13.3630   12.8930   64.8550 O   0  0  0  0  0  0  0  0  0  0  0  0
  -11.1930   12.0970   64.5740 C   0  0  0  0  0  0  0  0  0  0  0  0
  -10.5420   12.2720   63.3370 C   0  0  0  0  0  0  0  0  0  0  0  0
   -9.5560   11.3750   62.9340 C   0  0  0  0  0  0  0  0  0  0  0  0
   -9.2180   10.3060   63.7600 C   0  0  0  0  0  0  0  0  0  0  0  0
   -8.2610    9.4080   63.3930 O   0  0  0  0  0  0  0  0  0  0  0  0
   -9.8470   10.1190   64.9860 C   0  0  0  0  0  0  0  0  0  0  0  0
  -10.8350   11.0080   65.3890 C   0  0  0  0  0  0  0  0  0  0  0  0
  -11.4220   10.7450   66.6020 O   0  0  0  0  0  0  0  0  0  0  0  0
  -12.0570   12.1440   70.0800 C   0  0  0  0  0  0  0  0  0  0  0  0
  -11.3480   10.9970   69.8490 O   0  0  0  0  0  0  0  0  0  0  0  0
  -11.8390   10.0390   70.6780 C   0  0  0  0  0  0  0  0  0  0  0  0
  -12.8660   10.5590   71.4550 C   0  0  0  0  0  0  0  0  0  0  0  0
  -11.3930    8.7220   70.7470 C   0  0  0  0  0  0  0  0  0  0  0  0
  -12.9980   11.9190   71.0640 C   0  0  0  0  0  0  0  0  0  0  0  0
  -13.5020    9.7150   72.3800 C   0  0  0  0  0  0  0  0  0  0  0  0
  -13.0820    8.3800   72.4740 C   0  0  0  0  0  0  0  0  0  0  0  0
  -12.0470    7.9060   71.6670 C   0  0  0  0  0  0  0  0  0  0  0  0
  -11.6350    6.6060   71.7510 O   0  0  0  0  0  0  0  0  0  0  0  0
   -4.3310   21.1650   68.3060 C   0  0  0  0  0  0  0  0  0  0  0  0
   -3.6330   20.5810   67.2190 O   0  0  0  0  0  0  0  0  0  0  0  0
   -2.3020   21.0600   67.2090 C   0  0  0  0  0  0  0  0  0  0  0  0
   -1.6380   20.7780   68.4260 O   0  0  0  0  0  0  0  0  0  0  0  0
   -2.3540   21.3700   69.4930 C   0  0  0  0  0  0  0  0  0  0  0  0
   -3.6850   20.9050   69.5450 O   0  0  0  0  0  0  0  0  0  0  0  0
  1 23  1  0  0  0  0
  1  2  2  0  0  0  0
  1  6  1  0  0  0  0
  2  3  1  0  0  0  0
  3  4  2  0  0  0  0
  3 34  1  0  0  0  0
  4  5  1  0  0  0  0
  5  6  2  0  0  0  0
  5  9  1  0  0  0  0
  6  7  1  0  0  0  0
  7  8  2  0  0  0  0
  7 13  1  0  0  0  0
  8  9  1  0  0  0  0
  8 10  1  0  0  0  0
 10 11  1  0  0  0  0
 10 18  1  0  0  0  0
 11 12  1  0  0  0  0
 12 13  1  0  0  0  0
 12 16  1  0  0  0  0
 12 15  1  0  0  0  0
 13 14  2  0  0  0  0
 16 17  1  0  0  0  0
 17 18  2  0  0  0  0
 17 22  1  0  0  0  0
 18 19  1  0  0  0  0
 19 20  2  0  0  0  0
 20 21  1  0  0  0  0
 21 22  2  0  0  0  0
 21 44  1  0  0  0  0
 23 24  1  0  0  0  0
 24 26  1  0  0  0  0
 24 25  2  0  0  0  0
 26 27  2  0  0  0  0
 26 32  1  0  0  0  0
 27 28  1  0  0  0  0
 28 29  2  0  0  0  0
 29 30  1  0  0  0  0
 29 31  1  0  0  0  0
 31 32  2  0  0  0  0
 32 33  1  0  0  0  0
 34 35  1  0  0  0  0
 34 39  2  0  0  0  0
 35 36  1  0  0  0  0
 36 37  2  0  0  0  0
 36 38  1  0  0  0  0
 37 39  1  0  0  0  0
 37 40  1  0  0  0  0
 38 42  2  0  0  0  0
 40 41  2  0  0  0  0
 41 42  1  0  0  0  0
 42 43  1  0  0  0  0
 44 45  1  0  0  0  0
 44 49  1  0  0  0  0
 45 46  1  0  0  0  0
 46 47  1  0  0  0  0
 47 48  1  0  0  0  0
 48 49  1  0  0  0  0
M  END
