
 OpenBabel11212017263D

 54 62  0  0  1  0  0  0  0  0999 V2000
  -11.1420   15.6770   67.2470 C   0  0  0  0  0  0  0  0  0  0  0  0
  -10.7920   16.7830   67.9410 C   0  0  0  0  0  0  0  0  0  0  0  0
  -11.0870   16.9640   69.2940 O   0  0  0  0  0  0  0  0  0  0  0  0
  -11.7030   15.9350   70.0040 C   0  0  0  0  0  0  0  0  0  0  0  0
  -12.0690   14.7930   69.4020 C   0  0  0  0  0  0  0  0  0  0  0  0
  -11.8770   14.5670   67.9440 C   0  0  0  0  0  0  0  0  0  0  0  0
  -12.6980   13.6500   70.1330 C   0  0  0  0  0  0  0  0  0  0  0  0
  -11.8150   12.5450   70.0370 O   0  0  0  0  0  0  0  0  0  0  0  0
  -12.2170   11.3900   70.6260 C   0  0  0  0  0  0  0  0  0  0  0  0
  -11.7260   10.3120   70.3370 O   0  0  0  0  0  0  0  0  0  0  0  0
  -13.2050   11.5240   71.5430 O   0  0  0  0  0  0  0  0  0  0  0  0
  -13.4030   12.7390   72.2570 C   0  0  0  0  0  0  0  0  0  0  0  0
  -12.8340   13.9310   71.5740 C   0  0  0  0  0  0  0  0  0  0  0  0
  -12.4650   15.1070   72.1310 C   0  0  0  0  0  0  0  0  0  0  0  0
  -11.9160   16.1180   71.3480 O   0  0  0  0  0  0  0  0  0  0  0  0
  -14.7920   12.9940   72.3260 O   0  0  0  0  0  0  0  0  0  0  0  0
  -10.0280   17.8960   67.3360 C   0  0  0  0  0  0  0  0  0  0  0  0
  -10.7080   18.7350   66.4540 C   0  0  0  0  0  0  0  0  0  0  0  0
  -10.0200   19.7880   65.8930 C   0  0  0  0  0  0  0  0  0  0  0  0
  -10.6690   20.5880   65.0370 F   0  0  0  0  0  0  0  0  0  0  0  0
   -8.7310   20.0640   66.1480 N   0  0  0  0  0  0  0  0  0  0  0  0
   -8.0630   19.2940   67.0230 C   0  0  0  0  0  0  0  0  0  0  0  0
   -8.6690   18.1700   67.6430 C   0  0  0  0  0  0  0  0  0  0  0  0
   -6.7390   19.6050   67.3560 C   0  0  0  0  0  0  0  0  0  0  0  0
   -7.9030   17.3930   68.5380 C   0  0  0  0  0  0  0  0  0  0  0  0
   -6.5940   17.7600   68.8610 C   0  0  0  0  0  0  0  0  0  0  0  0
   -5.8300   16.9830   69.8300 C   0  0  0  0  0  0  0  0  0  0  0  0
   -6.0090   18.8770   68.2970 C   0  0  0  0  0  0  0  0  0  0  0  0
   -6.0990   15.8160   70.0690 O   0  0  0  0  0  0  0  0  0  0  0  0
   -4.7440   17.7220   70.5710 C   0  0  0  0  0  0  0  0  0  0  0  0
   -4.3770   17.3390   71.6760 O   0  0  0  0  0  0  0  0  0  0  0  0
   -4.3040   19.0340   69.9510 C   0  0  0  0  0  0  0  0  0  0  0  0
   -4.7500   19.3060   68.6170 O   0  0  0  0  0  0  0  0  0  0  0  0
   -6.1520   20.6720   66.7850 F   0  0  0  0  0  0  0  0  0  0  0  0
   -4.6110   20.1580   70.9190 C   0  0  0  0  0  0  0  0  0  0  0  0
   -6.0030   20.5200   71.0710 O   0  0  0  0  0  0  0  0  0  0  0  0
   -3.8160   20.2020   72.1150 O   0  0  0  0  0  0  0  0  0  0  0  0
   -3.6590   21.2000   71.2420 C   0  0  0  0  0  0  0  0  0  0  0  0
   -2.6980   21.6290   70.6230 O   0  0  0  0  0  0  0  0  0  0  0  0
  -10.8280   15.5530   65.9000 O   0  0  0  0  0  0  0  0  0  0  0  0
  -10.5520   14.2600   65.3260 C   0  0  0  0  0  0  0  0  0  0  0  0
  -10.2970   13.2950   66.3330 O   0  0  0  0  0  0  0  0  0  0  0  0
  -10.0680   12.0060   65.9030 C   0  0  0  0  0  0  0  0  0  0  0  0
   -9.4950   11.1210   66.7290 C   0  0  0  0  0  0  0  0  0  0  0  0
  -10.4980   11.5280   64.5510 C   0  0  0  0  0  0  0  0  0  0  0  0
   -9.1110   11.4430   68.0060 O   0  0  0  0  0  0  0  0  0  0  0  0
  -11.3710   12.4400   63.7230 C   0  0  0  0  0  0  0  0  0  0  0  0
  -10.1640   10.4170   64.1410 O   0  0  0  0  0  0  0  0  0  0  0  0
  -11.6190   13.7910   64.3310 C   0  0  0  0  0  0  0  0  0  0  0  0
  -12.5540   11.8260   63.4130 F   0  0  0  0  0  0  0  0  0  0  0  0
  -12.5840   14.4900   64.0070 O   0  0  0  0  0  0  0  0  0  0  0  0
  -12.5950   15.4080   73.5760 C   0  0  0  0  0  0  0  0  0  0  0  0
  -11.9960   16.5890   74.1290 O   0  0  0  0  0  0  0  0  0  0  0  0
  -13.4290   16.4880   74.0280 O   0  0  0  0  0  0  0  0  0  0  0  0
  1 40  1  0  0  0  0
  1  2  2  0  0  0  0
  1  6  1  0  0  0  0
  2  3  1  0  0  0  0
  2 17  1  0  0  0  0
  3  4  1  0  0  0  0
  4  5  2  0  0  0  0
  4 15  1  0  0  0  0
  5  6  1  0  0  0  0
  5  7  1  0  0  0  0
  7  8  1  0  0  0  0
  7 13  1  0  0  0  0
  8  9  1  0  0  0  0
  9 10  2  0  0  0  0
  9 11  1  0  0  0  0
 11 12  1  0  0  0  0
 12 13  1  0  0  0  0
 12 16  1  0  0  0  0
 13 14  2  0  0  0  0
 14 15  1  0  0  0  0
 14 52  1  0  0  0  0
 17 18  2  0  0  0  0
 17 23  1  0  0  0  0
 18 19  1  0  0  0  0
 19 20  1  0  0  0  0
 19 21  2  0  0  0  0
 21 22  1  0  0  0  0
 22 23  2  0  0  0  0
 22 24  1  0  0  0  0
 23 25  1  0  0  0  0
 24 28  2  0  0  0  0
 24 34  1  0  0  0  0
 25 26  2  0  0  0  0
 26 27  1  0  0  0  0
 26 28  1  0  0  0  0
 27 29  2  0  0  0  0
 27 30  1  0  0  0  0
 28 33  1  0  0  0  0
 30 31  2  0  0  0  0
 30 32  1  0  0  0  0
 32 33  1  0  0  0  0
 32 35  1  0  0  0  0
 35 36  1  0  0  0  0
 35 37  1  0  0  0  0
 35 38  1  0  0  0  0
 37 38  1  0  0  0  0
 38 39  2  0  0  0  0
 40 41  1  0  0  0  0
 41 42  1  0  0  0  0
 41 49  1  0  0  0  0
 42 43  1  0  0  0  0
 43 44  2  0  0  0  0
 43 45  1  0  0  0  0
 44 46  1  0  0  0  0
 45 47  1  0  0  0  0
 45 48  2  0  0  0  0
 47 49  1  0  0  0  0
 47 50  1  0  0  0  0
 49 51  2  0  0  0  0
 52 53  1  0  0  0  0
 52 54  1  0  0  0  0
 53 54  1  0  0  0  0
M  CHG  1  15   1
M  END