
 OpenBabel11252002263D

 52 61  0  0  1  0  0  0  0  0999 V2000
  -10.1790   15.1790   67.7910 C   0  0  0  0  0  0  0  0  0  0  0  0
  -10.5350   16.4370   68.1210 C   0  0  0  0  0  0  0  0  0  0  0  0
  -11.4590   16.7350   69.1170 O   0  0  0  0  0  0  0  0  0  0  0  0
  -12.0330   15.6980   69.8550 C   0  0  0  0  0  0  0  0  0  0  0  0
  -11.7540   14.4100   69.5830 C   0  0  0  0  0  0  0  0  0  0  0  0
  -10.8050   13.9940   68.4910 C   0  0  0  0  0  0  0  0  0  0  0  0
  -12.3480   13.3600   70.4150 C   0  0  0  0  0  0  0  0  0  0  0  0
  -12.1710   12.0910   70.0280 N   0  0  0  0  0  0  0  0  0  0  0  0
  -12.6960   11.1550   70.8320 C   0  0  0  0  0  0  0  0  0  0  0  0
  -13.3610   11.4060   71.9690 N   0  0  0  0  0  0  0  0  0  0  0  0
  -13.5090   12.6930   72.3220 C   0  0  0  0  0  0  0  0  0  0  0  0
  -13.0120   13.7330   71.5690 C   0  0  0  0  0  0  0  0  0  0  0  0
  -13.1140   15.1710   71.9580 C   0  0  0  0  0  0  0  0  0  0  0  0
  -12.8860   16.0660   70.8800 O   0  0  0  0  0  0  0  0  0  0  0  0
   -9.9250   17.6150   67.4700 C   0  0  0  0  0  0  0  0  0  0  0  0
  -10.7000   18.3410   66.5700 C   0  0  0  0  0  0  0  0  0  0  0  0
  -10.1890   19.3990   65.9340 N   0  0  0  0  0  0  0  0  0  0  0  0
  -10.9560   20.0630   65.0470 F   0  0  0  0  0  0  0  0  0  0  0  0
   -8.9520   19.8110   66.1220 N   0  0  0  0  0  0  0  0  0  0  0  0
   -8.1650   19.1920   67.0100 C   0  0  0  0  0  0  0  0  0  0  0  0
   -8.6160   18.0660   67.7320 C   0  0  0  0  0  0  0  0  0  0  0  0
   -6.8630   19.6860   67.2290 C   0  0  0  0  0  0  0  0  0  0  0  0
   -7.7380   17.4490   68.6570 C   0  0  0  0  0  0  0  0  0  0  0  0
   -6.4380   17.9300   68.8460 C   0  0  0  0  0  0  0  0  0  0  0  0
   -6.0020   19.0450   68.1410 C   0  0  0  0  0  0  0  0  0  0  0  0
   -5.5140   17.2400   69.7650 C   0  0  0  0  0  0  0  0  0  0  0  0
   -4.7410   19.5790   68.3070 O   0  0  0  0  0  0  0  0  0  0  0  0
   -4.1310   19.2470   69.5780 C   0  0  0  0  0  0  0  0  0  0  0  0
   -4.1170   17.8170   69.9000 C   0  0  0  0  0  0  0  0  0  0  0  0
   -3.0270   20.0190   69.9740 O   0  0  0  0  0  0  0  0  0  0  0  0
   -4.2610   20.1940   70.7360 C   0  0  0  0  0  0  0  0  0  0  0  0
   -3.1420   17.1640   70.2200 O   0  0  0  0  0  0  0  0  0  0  0  0
   -5.1980   21.2460   70.3060 O   0  0  0  0  0  0  0  0  0  0  0  0
   -4.2770   21.5590   71.1890 C   0  0  0  0  0  0  0  0  0  0  0  0
   -4.3860   22.0580   72.2930 O   0  0  0  0  0  0  0  0  0  0  0  0
   -5.8750   16.2550   70.3890 O   0  0  0  0  0  0  0  0  0  0  0  0
   -6.3300   20.6850   66.3830 N   0  0  0  0  0  0  0  0  0  0  0  0
   -9.2000   14.9960   66.8300 O   0  0  0  0  0  0  0  0  0  0  0  0
   -9.3140   13.9050   65.9000 C   0  0  0  0  0  0  0  0  0  0  0  0
   -9.5070   12.6820   66.5900 O   0  0  0  0  0  0  0  0  0  0  0  0
   -9.6150   11.5890   65.7440 C   0  0  0  0  0  0  0  0  0  0  0  0
   -9.1480   10.3860   66.1050 C   0  0  0  0  0  0  0  0  0  0  0  0
  -10.2640   11.7240   64.4070 C   0  0  0  0  0  0  0  0  0  0  0  0
   -8.5190   10.1570   67.3030 O   0  0  0  0  0  0  0  0  0  0  0  0
  -10.9580   13.0580   64.1970 C   0  0  0  0  0  0  0  0  0  0  0  0
  -10.1700   10.9020   63.5130 O   0  0  0  0  0  0  0  0  0  0  0  0
  -10.4780   14.2490   64.9900 C   0  0  0  0  0  0  0  0  0  0  0  0
  -11.8620   13.1840   63.3920 O   0  0  0  0  0  0  0  0  0  0  0  0
  -10.9320   15.3760   64.8380 O   0  0  0  0  0  0  0  0  0  0  0  0
  -12.1300   15.5230   73.0520 C   0  0  0  0  0  0  0  0  0  0  0  0
  -12.5360   16.4760   74.0890 N   0  0  0  0  0  0  0  0  0  0  0  0
  -12.2050   15.1210   74.4350 N   0  0  0  0  0  0  0  0  0  0  0  0
  1 38  1  0  0  0  0
  1  2  2  0  0  0  0
  1  6  1  0  0  0  0
  2  3  1  0  0  0  0
  2 15  1  0  0  0  0
  3  4  1  0  0  0  0
  4  5  2  0  0  0  0
  4 14  1  0  0  0  0
  5  6  1  0  0  0  0
  5  7  1  0  0  0  0
  7  8  2  0  0  0  0
  7 12  1  0  0  0  0
  8  9  1  0  0  0  0
  9 10  2  0  0  0  0
 10 11  1  0  0  0  0
 11 12  2  0  0  0  0
 12 13  1  0  0  0  0
 13 14  1  0  0  0  0
 13 50  1  0  0  0  0
 15 16  2  0  0  0  0
 15 21  1  0  0  0  0
 16 17  1  0  0  0  0
 17 18  1  0  0  0  0
 17 19  2  0  0  0  0
 19 20  1  0  0  0  0
 20 21  2  0  0  0  0
 20 22  1  0  0  0  0
 21 23  1  0  0  0  0
 22 25  2  0  0  0  0
 22 37  1  0  0  0  0
 23 24  2  0  0  0  0
 24 25  1  0  0  0  0
 24 26  1  0  0  0  0
 25 27  1  0  0  0  0
 26 29  1  0  0  0  0
 26 36  2  0  0  0  0
 27 28  1  0  0  0  0
 28 29  1  0  0  0  0
 28 30  1  0  0  0  0
 28 31  1  0  0  0  0
 29 32  2  0  0  0  0
 30 31  1  0  0  0  0
 31 33  1  0  0  0  0
 31 34  1  0  0  0  0
 33 34  1  0  0  0  0
 34 35  2  0  0  0  0
 38 39  1  0  0  0  0
 39 40  1  0  0  0  0
 39 47  1  0  0  0  0
 40 41  1  0  0  0  0
 41 42  2  0  0  0  0
 41 43  1  0  0  0  0
 42 44  1  0  0  0  0
 43 45  1  0  0  0  0
 43 46  2  0  0  0  0
 45 47  1  0  0  0  0
 45 48  2  0  0  0  0
 47 49  2  0  0  0  0
 50 51  1  0  0  0  0
 50 52  1  0  0  0  0
 51 52  1  0  0  0  0
M  CHG  2  14   1  17   1
M  END