
 OpenBabel11222002333D

 54 63  0  0  1  0  0  0  0  0999 V2000
  -10.8190   15.7950   67.3870 C   0  0  0  0  0  0  0  0  0  0  0  0
  -10.4870   16.8930   68.1010 C   0  0  0  0  0  0  0  0  0  0  0  0
  -10.7400   17.0090   69.4750 O   0  0  0  0  0  0  0  0  0  0  0  0
  -11.4180   15.9800   70.1470 C   0  0  0  0  0  0  0  0  0  0  0  0
  -11.8370   14.8820   69.4950 C   0  0  0  0  0  0  0  0  0  0  0  0
  -11.5820   14.6720   68.0400 C   0  0  0  0  0  0  0  0  0  0  0  0
  -12.6070   13.7790   70.1710 C   0  0  0  0  0  0  0  0  0  0  0  0
  -11.8730   12.5730   70.0500 O   0  0  0  0  0  0  0  0  0  0  0  0
  -12.5220   11.4680   70.5120 C   0  0  0  0  0  0  0  0  0  0  0  0
  -12.2440   10.3460   70.1220 O   0  0  0  0  0  0  0  0  0  0  0  0
  -13.5190   11.7270   71.3960 O   0  0  0  0  0  0  0  0  0  0  0  0
  -13.3830   12.8370   72.2770 C   0  0  0  0  0  0  0  0  0  0  0  0
  -12.7310   14.0080   71.6240 C   0  0  0  0  0  0  0  0  0  0  0  0
  -12.2600   15.1180   72.2350 C   0  0  0  0  0  0  0  0  0  0  0  0
  -11.6420   16.1230   71.5010 O   0  0  0  0  0  0  0  0  0  0  0  0
  -14.6730   13.3000   72.6240 O   0  0  0  0  0  0  0  0  0  0  0  0
   -9.8030   18.0620   67.4910 C   0  0  0  0  0  0  0  0  0  0  0  0
  -10.5200   18.8580   66.6000 C   0  0  0  0  0  0  0  0  0  0  0  0
   -9.9600   19.9340   66.0350 N   0  0  0  0  0  0  0  0  0  0  0  0
  -10.6760   20.6620   65.1560 F   0  0  0  0  0  0  0  0  0  0  0  0
   -8.7220   20.3060   66.2890 N   0  0  0  0  0  0  0  0  0  0  0  0
   -7.9790   19.6090   67.1500 C   0  0  0  0  0  0  0  0  0  0  0  0
   -8.4720   18.4460   67.7880 C   0  0  0  0  0  0  0  0  0  0  0  0
   -6.6740   20.0430   67.4120 C   0  0  0  0  0  0  0  0  0  0  0  0
   -7.6090   17.7490   68.6690 C   0  0  0  0  0  0  0  0  0  0  0  0
   -6.3160   18.2260   68.8930 C   0  0  0  0  0  0  0  0  0  0  0  0
   -5.3750   17.5600   69.7050 C   0  0  0  0  0  0  0  0  0  0  0  0
   -5.8250   19.3780   68.2910 C   0  0  0  0  0  0  0  0  0  0  0  0
   -5.1330   16.4870   70.3500 N   0  0  0  0  0  0  0  0  0  0  0  0
   -4.1070   18.0910   70.0260 C   0  0  0  0  0  0  0  0  0  0  0  0
   -3.8120   17.0410   70.6920 N   0  0  0  0  0  0  0  0  0  0  0  0
   -3.7250   19.4320   69.5820 C   0  0  0  0  0  0  0  0  0  0  0  0
   -4.5440   19.8650   68.4510 O   0  0  0  0  0  0  0  0  0  0  0  0
   -6.2220   21.1370   66.7770 F   0  0  0  0  0  0  0  0  0  0  0  0
   -3.8650   20.4230   70.6870 C   0  0  0  0  0  0  0  0  0  0  0  0
   -4.7610   21.5370   70.4390 O   0  0  0  0  0  0  0  0  0  0  0  0
   -3.9080   19.8610   71.9970 O   0  0  0  0  0  0  0  0  0  0  0  0
   -2.8460   20.6580   71.7210 C   0  0  0  0  0  0  0  0  0  0  0  0
   -2.5040   21.6900   72.2270 O   0  0  0  0  0  0  0  0  0  0  0  0
  -10.5310   15.7020   66.0300 O   0  0  0  0  0  0  0  0  0  0  0  0
  -10.2660   14.3820   65.4710 C   0  0  0  0  0  0  0  0  0  0  0  0
   -9.9710   13.4250   66.4800 O   0  0  0  0  0  0  0  0  0  0  0  0
   -9.7110   12.1700   65.9650 C   0  0  0  0  0  0  0  0  0  0  0  0
   -8.5750   11.5160   66.2380 C   0  0  0  0  0  0  0  0  0  0  0  0
  -10.7550   11.5360   65.1170 C   0  0  0  0  0  0  0  0  0  0  0  0
   -7.5630   12.0700   66.9870 O   0  0  0  0  0  0  0  0  0  0  0  0
  -11.8470   12.5240   64.7440 C   0  0  0  0  0  0  0  0  0  0  0  0
  -10.7270   10.3890   64.7180 O   0  0  0  0  0  0  0  0  0  0  0  0
  -11.4870   13.9950   64.6480 C   0  0  0  0  0  0  0  0  0  0  0  0
  -12.9990   12.1630   64.5740 O   0  0  0  0  0  0  0  0  0  0  0  0
  -12.0980   14.7760   63.9290 O   0  0  0  0  0  0  0  0  0  0  0  0
  -12.3260   15.3290   73.6980 C   0  0  0  0  0  0  0  0  0  0  0  0
  -12.0110   16.6080   74.2640 O   0  0  0  0  0  0  0  0  0  0  0  0
  -13.3720   16.1370   74.2650 O   0  0  0  0  0  0  0  0  0  0  0  0
  1 40  1  0  0  0  0
  1  2  2  0  0  0  0
  1  6  1  0  0  0  0
  2  3  1  0  0  0  0
  2 17  1  0  0  0  0
  3  4  1  0  0  0  0
  4  5  2  0  0  0  0
  4 15  1  0  0  0  0
  5  6  1  0  0  0  0
  5  7  1  0  0  0  0
  7  8  1  0  0  0  0
  7 13  1  0  0  0  0
  8  9  1  0  0  0  0
  9 10  2  0  0  0  0
  9 11  1  0  0  0  0
 11 12  1  0  0  0  0
 12 13  1  0  0  0  0
 12 16  1  0  0  0  0
 13 14  2  0  0  0  0
 14 15  1  0  0  0  0
 14 52  1  0  0  0  0
 17 18  2  0  0  0  0
 17 23  1  0  0  0  0
 18 19  1  0  0  0  0
 19 20  1  0  0  0  0
 19 21  2  0  0  0  0
 21 22  1  0  0  0  0
 22 23  2  0  0  0  0
 22 24  1  0  0  0  0
 23 25  1  0  0  0  0
 24 28  2  0  0  0  0
 24 34  1  0  0  0  0
 25 26  2  0  0  0  0
 26 27  1  0  0  0  0
 26 28  1  0  0  0  0
 27 29  2  0  0  0  0
 27 30  1  0  0  0  0
 28 33  1  0  0  0  0
 29 31  1  0  0  0  0
 30 31  2  0  0  0  0
 30 32  1  0  0  0  0
 32 33  1  0  0  0  0
 32 35  1  0  0  0  0
 35 36  1  0  0  0  0
 35 37  1  0  0  0  0
 35 38  1  0  0  0  0
 37 38  1  0  0  0  0
 38 39  2  0  0  0  0
 40 41  1  0  0  0  0
 41 42  1  0  0  0  0
 41 49  1  0  0  0  0
 42 43  1  0  0  0  0
 43 44  2  0  0  0  0
 43 45  1  0  0  0  0
 44 46  1  0  0  0  0
 45 47  1  0  0  0  0
 45 48  2  0  0  0  0
 47 49  1  0  0  0  0
 47 50  2  0  0  0  0
 49 51  2  0  0  0  0
 52 53  1  0  0  0  0
 52 54  1  0  0  0  0
 53 54  1  0  0  0  0
M  CHG  2  15   1  19   1
M  END