
 OpenBabel11262000553D

 54 62  0  0  1  0  0  0  0  0999 V2000
  -10.8700   15.5920   67.0570 C   0  0  0  0  0  0  0  0  0  0  0  0
  -10.7780   16.7490   67.7490 C   0  0  0  0  0  0  0  0  0  0  0  0
  -11.3680   16.9310   69.0110 O   0  0  0  0  0  0  0  0  0  0  0  0
  -11.9660   15.8330   69.6700 C   0  0  0  0  0  0  0  0  0  0  0  0
  -12.0630   14.6340   69.0580 C   0  0  0  0  0  0  0  0  0  0  0  0
  -11.6140   14.4090   67.6420 C   0  0  0  0  0  0  0  0  0  0  0  0
  -12.6350   13.4150   69.7540 C   0  0  0  0  0  0  0  0  0  0  0  0
  -11.6320   12.4130   69.7630 O   0  0  0  0  0  0  0  0  0  0  0  0
  -11.9210   11.2950   70.4680 C   0  0  0  0  0  0  0  0  0  0  0  0
  -11.2610   10.2260   70.2480 N   0  0  0  0  0  0  0  0  0  0  0  0
  -12.8890   11.3360   71.4070 O   0  0  0  0  0  0  0  0  0  0  0  0
  -13.3660   12.5010   71.8750 C   0  0  0  0  0  0  0  0  0  0  0  0
  -14.1170   12.5950   72.8330 O   0  0  0  0  0  0  0  0  0  0  0  0
  -12.9500   13.7050   71.1590 C   0  0  0  0  0  0  0  0  0  0  0  0
  -12.8580   14.9250   71.7270 C   0  0  0  0  0  0  0  0  0  0  0  0
  -12.4270   16.0070   70.9650 O   0  0  0  0  0  0  0  0  0  0  0  0
  -10.0160   17.9180   67.2140 C   0  0  0  0  0  0  0  0  0  0  0  0
  -10.6340   18.7780   66.2920 C   0  0  0  0  0  0  0  0  0  0  0  0
   -9.9560   19.8140   65.7860 N   0  0  0  0  0  0  0  0  0  0  0  0
  -10.5660   20.6520   64.9210 F   0  0  0  0  0  0  0  0  0  0  0  0
   -8.7050   20.0580   66.1150 N   0  0  0  0  0  0  0  0  0  0  0  0
   -8.0820   19.2510   66.9900 C   0  0  0  0  0  0  0  0  0  0  0  0
   -8.7090   18.1590   67.5790 N   0  0  0  0  0  0  0  0  0  0  0  0
   -6.7540   19.5260   67.3380 C   0  0  0  0  0  0  0  0  0  0  0  0
   -8.0090   17.3870   68.4670 C   0  0  0  0  0  0  0  0  0  0  0  0
   -6.6950   17.6950   68.8260 C   0  0  0  0  0  0  0  0  0  0  0  0
   -5.9780   16.8690   69.7880 C   0  0  0  0  0  0  0  0  0  0  0  0
   -6.0580   18.7730   68.2720 C   0  0  0  0  0  0  0  0  0  0  0  0
   -6.4890   15.8100   70.1100 O   0  0  0  0  0  0  0  0  0  0  0  0
   -4.7070   17.4370   70.4030 C   0  0  0  0  0  0  0  0  0  0  0  0
   -4.2070   16.8920   71.3740 O   0  0  0  0  0  0  0  0  0  0  0  0
   -4.3190   18.8190   69.9030 C   0  0  0  0  0  0  0  0  0  0  0  0
   -4.7630   19.0820   68.5510 O   0  0  0  0  0  0  0  0  0  0  0  0
   -6.1460   20.5730   66.7610 F   0  0  0  0  0  0  0  0  0  0  0  0
   -4.8030   19.9160   70.8150 C   0  0  0  0  0  0  0  0  0  0  0  0
   -6.2240   20.1910   70.7670 O   0  0  0  0  0  0  0  0  0  0  0  0
   -4.2630   19.8370   72.1330 O   0  0  0  0  0  0  0  0  0  0  0  0
   -3.9770   20.9660   71.4250 C   0  0  0  0  0  0  0  0  0  0  0  0
   -4.2640   22.1000   71.7080 O   0  0  0  0  0  0  0  0  0  0  0  0
  -10.2450   15.4700   65.8170 O   0  0  0  0  0  0  0  0  0  0  0  0
   -9.8690   14.1310   65.3530 C   0  0  0  0  0  0  0  0  0  0  0  0
   -9.4740   13.3230   66.4590 O   0  0  0  0  0  0  0  0  0  0  0  0
   -9.2780   11.9930   66.1160 C   0  0  0  0  0  0  0  0  0  0  0  0
   -8.2380   11.3050   66.6000 C   0  0  0  0  0  0  0  0  0  0  0  0
  -10.2670   11.2980   65.2290 C   0  0  0  0  0  0  0  0  0  0  0  0
   -7.2740   11.8720   67.4000 O   0  0  0  0  0  0  0  0  0  0  0  0
  -11.2300   12.2200   64.5870 C   0  0  0  0  0  0  0  0  0  0  0  0
  -10.2710   10.0930   65.0440 O   0  0  0  0  0  0  0  0  0  0  0  0
  -11.0440   13.5410   64.6370 C   0  0  0  0  0  0  0  0  0  0  0  0
  -12.2510   11.6680   63.9080 F   0  0  0  0  0  0  0  0  0  0  0  0
  -11.9170   14.3650   64.0120 F   0  0  0  0  0  0  0  0  0  0  0  0
  -13.1820   15.2420   73.1430 C   0  0  0  0  0  0  0  0  0  0  0  0
  -12.1570   15.1130   74.1500 O   0  0  0  0  0  0  0  0  0  0  0  0
  -12.6430   16.4120   73.7690 O   0  0  0  0  0  0  0  0  0  0  0  0
  1 40  1  0  0  0  0
  1  2  2  0  0  0  0
  1  6  1  0  0  0  0
  2  3  1  0  0  0  0
  2 17  1  0  0  0  0
  3  4  1  0  0  0  0
  4  5  2  0  0  0  0
  4 16  1  0  0  0  0
  5  6  1  0  0  0  0
  5  7  1  0  0  0  0
  7  8  1  0  0  0  0
  7 14  1  0  0  0  0
  8  9  1  0  0  0  0
  9 10  2  0  0  0  0
  9 11  1  0  0  0  0
 11 12  1  0  0  0  0
 12 13  2  0  0  0  0
 12 14  1  0  0  0  0
 14 15  2  0  0  0  0
 15 16  1  0  0  0  0
 15 52  1  0  0  0  0
 17 18  2  0  0  0  0
 17 23  1  0  0  0  0
 18 19  1  0  0  0  0
 19 20  1  0  0  0  0
 19 21  2  0  0  0  0
 21 22  1  0  0  0  0
 22 23  2  0  0  0  0
 22 24  1  0  0  0  0
 23 25  1  0  0  0  0
 24 28  2  0  0  0  0
 24 34  1  0  0  0  0
 25 26  2  0  0  0  0
 26 27  1  0  0  0  0
 26 28  1  0  0  0  0
 27 29  2  0  0  0  0
 27 30  1  0  0  0  0
 28 33  1  0  0  0  0
 30 31  2  0  0  0  0
 30 32  1  0  0  0  0
 32 33  1  0  0  0  0
 32 35  1  0  0  0  0
 35 36  1  0  0  0  0
 35 37  1  0  0  0  0
 35 38  1  0  0  0  0
 37 38  1  0  0  0  0
 38 39  2  0  0  0  0
 40 41  1  0  0  0  0
 41 42  1  0  0  0  0
 41 49  1  0  0  0  0
 42 43  1  0  0  0  0
 43 44  2  0  0  0  0
 43 45  1  0  0  0  0
 44 46  1  0  0  0  0
 45 47  1  0  0  0  0
 45 48  2  0  0  0  0
 47 49  2  0  0  0  0
 47 50  1  0  0  0  0
 49 51  1  0  0  0  0
 52 53  1  0  0  0  0
 52 54  1  0  0  0  0
 53 54  1  0  0  0  0
M  CHG  3  16   1  19   1  23   1
M  END