
 OpenBabel11262000353D

 54 62  0  0  1  0  0  0  0  0999 V2000
  -10.1190   15.5140   67.1820 C   0  0  0  0  0  0  0  0  0  0  0  0
  -10.0800   16.7160   67.8030 C   0  0  0  0  0  0  0  0  0  0  0  0
  -10.7040   16.9160   69.0720 O   0  0  0  0  0  0  0  0  0  0  0  0
  -11.3920   15.8410   69.7240 C   0  0  0  0  0  0  0  0  0  0  0  0
  -11.4240   14.6220   69.1630 C   0  0  0  0  0  0  0  0  0  0  0  0
  -10.7740   14.3240   67.8440 C   0  0  0  0  0  0  0  0  0  0  0  0
  -12.1690   13.4600   69.7660 C   0  0  0  0  0  0  0  0  0  0  0  0
  -11.2740   12.3820   69.9480 O   0  0  0  0  0  0  0  0  0  0  0  0
  -11.8500   11.2520   70.4210 C   0  0  0  0  0  0  0  0  0  0  0  0
  -11.3400   10.1090   70.2100 N   0  0  0  0  0  0  0  0  0  0  0  0
  -12.9510   11.3850   71.1900 O   0  0  0  0  0  0  0  0  0  0  0  0
  -13.2770   12.5710   71.6970 C   0  0  0  0  0  0  0  0  0  0  0  0
  -14.0020   12.7410   72.6750 O   0  0  0  0  0  0  0  0  0  0  0  0
  -12.7170   13.7930   71.1080 C   0  0  0  0  0  0  0  0  0  0  0  0
  -12.7110   15.0290   71.6920 C   0  0  0  0  0  0  0  0  0  0  0  0
  -12.0420   16.0820   70.9500 O   0  0  0  0  0  0  0  0  0  0  0  0
   -9.3880   17.9160   67.1680 C   0  0  0  0  0  0  0  0  0  0  0  0
  -10.1400   18.8210   66.3920 C   0  0  0  0  0  0  0  0  0  0  0  0
   -9.5530   19.8960   65.8470 N   0  0  0  0  0  0  0  0  0  0  0  0
  -10.2950   20.7740   65.1400 F   0  0  0  0  0  0  0  0  0  0  0  0
   -8.2740   20.1580   66.0130 N   0  0  0  0  0  0  0  0  0  0  0  0
   -7.5170   19.3210   66.7410 C   0  0  0  0  0  0  0  0  0  0  0  0
   -8.0370   18.1650   67.3240 N   0  0  0  0  0  0  0  0  0  0  0  0
   -6.1750   19.6540   66.9820 C   0  0  0  0  0  0  0  0  0  0  0  0
   -7.2020   17.3610   68.0420 C   0  0  0  0  0  0  0  0  0  0  0  0
   -5.8950   17.7480   68.3430 C   0  0  0  0  0  0  0  0  0  0  0  0
   -5.1680   17.0090   69.3630 C   0  0  0  0  0  0  0  0  0  0  0  0
   -5.3740   18.9140   67.8420 C   0  0  0  0  0  0  0  0  0  0  0  0
   -5.6940   16.0020   69.8080 O   0  0  0  0  0  0  0  0  0  0  0  0
   -3.9230   17.6460   69.9420 C   0  0  0  0  0  0  0  0  0  0  0  0
   -3.2480   17.0110   70.7330 O   0  0  0  0  0  0  0  0  0  0  0  0
   -3.7480   19.1170   69.5930 C   0  0  0  0  0  0  0  0  0  0  0  0
   -4.1780   19.4290   68.2420 O   0  0  0  0  0  0  0  0  0  0  0  0
   -5.6990   20.7980   66.4730 F   0  0  0  0  0  0  0  0  0  0  0  0
   -4.4030   20.0080   70.6360 C   0  0  0  0  0  0  0  0  0  0  0  0
   -5.3490   20.9760   70.1580 O   0  0  0  0  0  0  0  0  0  0  0  0
   -4.6890   19.3960   71.9010 O   0  0  0  0  0  0  0  0  0  0  0  0
   -3.7800   20.3750   71.9040 C   0  0  0  0  0  0  0  0  0  0  0  0
   -2.6100   20.4180   72.2530 O   0  0  0  0  0  0  0  0  0  0  0  0
   -9.4870   15.3210   65.9510 O   0  0  0  0  0  0  0  0  0  0  0  0
  -10.0930   14.3760   64.9740 C   0  0  0  0  0  0  0  0  0  0  0  0
  -10.1620   13.0820   65.5160 O   0  0  0  0  0  0  0  0  0  0  0  0
  -11.0760   12.2170   64.9550 C   0  0  0  0  0  0  0  0  0  0  0  0
  -10.8850   10.8960   65.0630 C   0  0  0  0  0  0  0  0  0  0  0  0
  -12.3710   12.7030   64.3910 C   0  0  0  0  0  0  0  0  0  0  0  0
   -9.7890   10.3670   65.6980 O   0  0  0  0  0  0  0  0  0  0  0  0
  -12.6010   14.1940   64.3510 C   0  0  0  0  0  0  0  0  0  0  0  0
  -13.2800   11.9160   64.1370 O   0  0  0  0  0  0  0  0  0  0  0  0
  -11.3730   15.0570   64.4910 C   0  0  0  0  0  0  0  0  0  0  0  0
  -13.4600   14.5500   65.3660 F   0  0  0  0  0  0  0  0  0  0  0  0
  -11.4290   16.2980   64.4450 O   0  0  0  0  0  0  0  0  0  0  0  0
  -13.3440   15.4160   73.0720 C   0  0  0  0  0  0  0  0  0  0  0  0
  -12.7560   16.4530   74.0260 N   0  0  0  0  0  0  0  0  0  0  0  0
  -12.6060   15.4230   74.4160 N   0  0  0  0  0  0  0  0  0  0  0  0
  1 40  1  0  0  0  0
  1  2  2  0  0  0  0
  1  6  1  0  0  0  0
  2  3  1  0  0  0  0
  2 17  1  0  0  0  0
  3  4  1  0  0  0  0
  4  5  2  0  0  0  0
  4 16  1  0  0  0  0
  5  6  1  0  0  0  0
  5  7  1  0  0  0  0
  7  8  1  0  0  0  0
  7 14  1  0  0  0  0
  8  9  1  0  0  0  0
  9 10  2  0  0  0  0
  9 11  1  0  0  0  0
 11 12  1  0  0  0  0
 12 13  2  0  0  0  0
 12 14  1  0  0  0  0
 14 15  2  0  0  0  0
 15 16  1  0  0  0  0
 15 52  1  0  0  0  0
 17 18  2  0  0  0  0
 17 23  1  0  0  0  0
 18 19  1  0  0  0  0
 19 20  1  0  0  0  0
 19 21  2  0  0  0  0
 21 22  1  0  0  0  0
 22 23  2  0  0  0  0
 22 24  1  0  0  0  0
 23 25  1  0  0  0  0
 24 28  2  0  0  0  0
 24 34  1  0  0  0  0
 25 26  2  0  0  0  0
 26 27  1  0  0  0  0
 26 28  1  0  0  0  0
 27 29  2  0  0  0  0
 27 30  1  0  0  0  0
 28 33  1  0  0  0  0
 30 31  2  0  0  0  0
 30 32  1  0  0  0  0
 32 33  1  0  0  0  0
 32 35  1  0  0  0  0
 35 36  1  0  0  0  0
 35 37  1  0  0  0  0
 35 38  1  0  0  0  0
 37 38  1  0  0  0  0
 38 39  2  0  0  0  0
 40 41  1  0  0  0  0
 41 42  1  0  0  0  0
 41 49  1  0  0  0  0
 42 43  1  0  0  0  0
 43 44  2  0  0  0  0
 43 45  1  0  0  0  0
 44 46  1  0  0  0  0
 45 47  1  0  0  0  0
 45 48  2  0  0  0  0
 47 49  1  0  0  0  0
 47 50  1  0  0  0  0
 49 51  2  0  0  0  0
 52 53  1  0  0  0  0
 52 54  1  0  0  0  0
 53 54  3  0  0  0  0
M  CHG  5  16   1  53   1  54   1  19   1  23   1
M  END