
 OpenBabel11222000543D

 55 63  0  0  1  0  0  0  0  0999 V2000
   -9.7670   17.8780   67.2490 C   0  0  0  0  0  0  0  0  0  0  0  0
  -10.4900   18.6940   66.3900 C   0  0  0  0  0  0  0  0  0  0  0  0
   -9.9420   19.7980   65.8810 N   0  0  0  0  0  0  0  0  0  0  0  0
  -10.6670   20.5640   65.0430 F   0  0  0  0  0  0  0  0  0  0  0  0
   -8.7120   20.1760   66.1650 N   0  0  0  0  0  0  0  0  0  0  0  0
   -7.9540   19.4480   66.9980 C   0  0  0  0  0  0  0  0  0  0  0  0
   -8.4420   18.2520   67.5670 C   0  0  0  0  0  0  0  0  0  0  0  0
   -7.5910   17.5090   68.4200 C   0  0  0  0  0  0  0  0  0  0  0  0
   -6.3080   17.9700   68.7420 C   0  0  0  0  0  0  0  0  0  0  0  0
   -5.4590   17.2220   69.6790 C   0  0  0  0  0  0  0  0  0  0  0  0
   -5.7940   16.1300   70.1020 O   0  0  0  0  0  0  0  0  0  0  0  0
   -4.1610   17.8810   70.0880 C   0  0  0  0  0  0  0  0  0  0  0  0
   -3.2220   17.2130   70.4920 O   0  0  0  0  0  0  0  0  0  0  0  0
   -4.1520   19.3790   69.9080 C   0  0  0  0  0  0  0  0  0  0  0  0
   -4.6580   19.7450   68.6040 O   0  0  0  0  0  0  0  0  0  0  0  0
   -5.8440   19.1720   68.2220 C   0  0  0  0  0  0  0  0  0  0  0  0
   -6.6580   19.8830   67.3250 C   0  0  0  0  0  0  0  0  0  0  0  0
   -6.1870   21.1240   66.7670 C   0  0  0  0  0  0  0  0  0  0  0  0
   -5.8600   22.1160   66.2800 N   0  0  0  0  0  0  0  0  0  0  0  0
  -10.4670   16.6990   67.7910 C   0  0  0  0  0  0  0  0  0  0  0  0
  -10.3280   15.4630   67.2590 C   0  0  0  0  0  0  0  0  0  0  0  0
  -11.0720   14.3000   67.8740 C   0  0  0  0  0  0  0  0  0  0  0  0
  -11.6960   14.6410   69.1770 C   0  0  0  0  0  0  0  0  0  0  0  0
  -11.7380   15.8860   69.6680 C   0  0  0  0  0  0  0  0  0  0  0  0
  -12.1950   13.5210   70.0180 C   0  0  0  0  0  0  0  0  0  0  0  0
  -11.1980   16.9590   68.9540 O   0  0  0  0  0  0  0  0  0  0  0  0
  -12.2710   16.1280   70.9070 N   0  0  0  0  0  0  0  0  0  0  0  0
  -12.7610   15.1290   71.7540 C   0  0  0  0  0  0  0  0  0  0  0  0
  -12.7480   13.8380   71.3500 C   0  0  0  0  0  0  0  0  0  0  0  0
  -13.1930   12.6290   72.0380 C   0  0  0  0  0  0  0  0  0  0  0  0
  -13.0980   11.4310   71.6020 N   0  0  0  0  0  0  0  0  0  0  0  0
  -13.7660   12.8070   73.2310 O   0  0  0  0  0  0  0  0  0  0  0  0
  -12.5150   11.2600   70.3650 C   0  0  0  0  0  0  0  0  0  0  0  0
  -12.1000   12.3090   69.5800 N   0  0  0  0  0  0  0  0  0  0  0  0
  -12.3450   10.1250   69.9350 O   0  0  0  0  0  0  0  0  0  0  0  0
   -9.5300   15.2450   66.1370 O   0  0  0  0  0  0  0  0  0  0  0  0
   -9.9440   14.2230   65.1990 C   0  0  0  0  0  0  0  0  0  0  0  0
   -9.9890   12.9320   65.7920 O   0  0  0  0  0  0  0  0  0  0  0  0
  -10.2980   11.8850   64.9420 C   0  0  0  0  0  0  0  0  0  0  0  0
   -9.7080   10.6930   65.0960 C   0  0  0  0  0  0  0  0  0  0  0  0
  -11.3450   12.0430   63.8970 C   0  0  0  0  0  0  0  0  0  0  0  0
   -8.7490   10.4800   66.0510 O   0  0  0  0  0  0  0  0  0  0  0  0
  -11.8410   13.4690   63.7430 C   0  0  0  0  0  0  0  0  0  0  0  0
  -11.7580   11.1370   63.1940 O   0  0  0  0  0  0  0  0  0  0  0  0
  -11.3320   14.5390   64.6780 C   0  0  0  0  0  0  0  0  0  0  0  0
  -12.5640   13.7860   62.8100 O   0  0  0  0  0  0  0  0  0  0  0  0
  -11.9720   15.5550   64.9080 O   0  0  0  0  0  0  0  0  0  0  0  0
  -13.2450   15.5970   73.0760 C   0  0  0  0  0  0  0  0  0  0  0  0
  -12.4990   15.3490   74.2800 O   0  0  0  0  0  0  0  0  0  0  0  0
  -12.6070   16.6900   73.7670 O   0  0  0  0  0  0  0  0  0  0  0  0
   -4.8210   20.1150   71.0470 C   0  0  0  0  0  0  0  0  0  0  0  0
   -6.2430   20.3110   70.9250 O   0  0  0  0  0  0  0  0  0  0  0  0
   -4.3950   19.7310   72.3630 O   0  0  0  0  0  0  0  0  0  0  0  0
   -4.1330   20.9910   71.9890 C   0  0  0  0  0  0  0  0  0  0  0  0
   -3.0870   21.6040   71.9330 O   0  0  0  0  0  0  0  0  0  0  0  0
  1 20  1  0  0  0  0
  1  2  2  0  0  0  0
  1  7  1  0  0  0  0
  2  3  1  0  0  0  0
  3  4  1  0  0  0  0
  3  5  2  0  0  0  0
  5  6  1  0  0  0  0
  6  7  2  0  0  0  0
  6 17  1  0  0  0  0
  7  8  1  0  0  0  0
  8  9  2  0  0  0  0
  9 10  1  0  0  0  0
  9 16  1  0  0  0  0
 10 11  2  0  0  0  0
 10 12  1  0  0  0  0
 12 13  2  0  0  0  0
 12 14  1  0  0  0  0
 14 15  1  0  0  0  0
 14 51  1  0  0  0  0
 15 16  1  0  0  0  0
 16 17  2  0  0  0  0
 17 18  1  0  0  0  0
 18 19  3  0  0  0  0
 20 21  2  0  0  0  0
 20 26  1  0  0  0  0
 21 36  1  0  0  0  0
 21 22  1  0  0  0  0
 22 23  1  0  0  0  0
 23 24  2  0  0  0  0
 23 25  1  0  0  0  0
 24 26  1  0  0  0  0
 24 27  1  0  0  0  0
 25 34  2  0  0  0  0
 25 29  1  0  0  0  0
 27 28  1  0  0  0  0
 28 29  2  0  0  0  0
 28 48  1  0  0  0  0
 29 30  1  0  0  0  0
 30 31  2  0  0  0  0
 30 32  1  0  0  0  0
 31 33  1  0  0  0  0
 33 34  1  0  0  0  0
 33 35  2  0  0  0  0
 36 37  1  0  0  0  0
 37 38  1  0  0  0  0
 37 45  1  0  0  0  0
 38 39  1  0  0  0  0
 39 40  2  0  0  0  0
 39 41  1  0  0  0  0
 40 42  1  0  0  0  0
 41 43  1  0  0  0  0
 41 44  2  0  0  0  0
 43 45  1  0  0  0  0
 43 46  2  0  0  0  0
 45 47  2  0  0  0  0
 48 49  1  0  0  0  0
 48 50  1  0  0  0  0
 49 50  1  0  0  0  0
 51 52  1  0  0  0  0
 51 53  1  0  0  0  0
 51 54  1  0  0  0  0
 53 54  1  0  0  0  0
 54 55  2  0  0  0  0
M  CHG  1   3   1
M  END