
 OpenBabel10192022413D

 51 59  0  0  1  0  0  0  0  0999 V2000
   -9.7790   15.3160   67.7280 C   0  0  0  0  0  0  0  0  0  0  0  0
   -9.9120   16.5810   68.2190 C   0  0  0  0  0  0  0  0  0  0  0  0
  -10.5200   16.8170   69.4720 O   0  0  0  0  0  0  0  0  0  0  0  0
  -11.1570   15.7960   70.1750 C   0  0  0  0  0  0  0  0  0  0  0  0
  -11.1700   14.5350   69.7200 C   0  0  0  0  0  0  0  0  0  0  0  0
  -10.4320   14.1420   68.4810 C   0  0  0  0  0  0  0  0  0  0  0  0
  -11.9640   13.5170   70.4960 C   0  0  0  0  0  0  0  0  0  0  0  0
  -12.0410   12.2900   70.0970 N   0  0  0  0  0  0  0  0  0  0  0  0
  -12.7940   11.3810   70.8250 C   0  0  0  0  0  0  0  0  0  0  0  0
  -12.8330   10.2220   70.4330 O   0  0  0  0  0  0  0  0  0  0  0  0
  -13.4880   11.7100   71.9710 N   0  0  0  0  0  0  0  0  0  0  0  0
  -13.4300   12.9220   72.4040 C   0  0  0  0  0  0  0  0  0  0  0  0
  -12.6570   13.9730   71.7310 C   0  0  0  0  0  0  0  0  0  0  0  0
  -12.5310   15.2540   72.1310 C   0  0  0  0  0  0  0  0  0  0  0  0
  -11.7700   16.1320   71.3620 N   0  0  0  0  0  0  0  0  0  0  0  0
   -9.6170   17.8810   67.5300 C   0  0  0  0  0  0  0  0  0  0  0  0
  -10.7260   18.6080   67.2540 N   0  0  0  0  0  0  0  0  0  0  0  0
  -10.5510   19.8710   66.8290 C   0  0  0  0  0  0  0  0  0  0  0  0
   -9.3740   20.4650   66.6360 N   0  0  0  0  0  0  0  0  0  0  0  0
   -8.2950   19.7840   66.9800 C   0  0  0  0  0  0  0  0  0  0  0  0
   -8.3230   18.4400   67.4030 C   0  0  0  0  0  0  0  0  0  0  0  0
   -7.1210   20.5120   67.0290 C   0  0  0  0  0  0  0  0  0  0  0  0
   -7.0900   17.8340   67.7370 C   0  0  0  0  0  0  0  0  0  0  0  0
   -5.9370   18.6290   67.8770 C   0  0  0  0  0  0  0  0  0  0  0  0
   -5.9680   19.9820   67.5890 C   0  0  0  0  0  0  0  0  0  0  0  0
   -4.7060   18.0550   68.4130 C   0  0  0  0  0  0  0  0  0  0  0  0
   -4.9920   20.8840   67.8800 O   0  0  0  0  0  0  0  0  0  0  0  0
   -3.8390   20.4490   68.6100 C   0  0  0  0  0  0  0  0  0  0  0  0
   -3.5100   18.9790   68.4990 C   0  0  0  0  0  0  0  0  0  0  0  0
   -2.3820   18.5080   68.4530 O   0  0  0  0  0  0  0  0  0  0  0  0
   -4.6510   16.8630   68.6920 O   0  0  0  0  0  0  0  0  0  0  0  0
   -3.8840   20.9000   70.0510 C   0  0  0  0  0  0  0  0  0  0  0  0
   -5.1740   21.3010   70.5730 O   0  0  0  0  0  0  0  0  0  0  0  0
   -3.1070   20.1060   70.9600 O   0  0  0  0  0  0  0  0  0  0  0  0
   -2.6890   21.3480   70.7360 C   0  0  0  0  0  0  0  0  0  0  0  0
   -1.6180   21.7880   70.3230 O   0  0  0  0  0  0  0  0  0  0  0  0
   -9.2280   14.8820   66.5350 O   0  0  0  0  0  0  0  0  0  0  0  0
   -9.9190   14.1380   65.5340 C   0  0  0  0  0  0  0  0  0  0  0  0
   -9.9390   12.7040   65.8070 O   0  0  0  0  0  0  0  0  0  0  0  0
  -10.7710   11.8620   65.1630 C   0  0  0  0  0  0  0  0  0  0  0  0
  -11.8070   12.4470   64.2060 C   0  0  0  0  0  0  0  0  0  0  0  0
  -12.0480   13.9230   64.2830 C   0  0  0  0  0  0  0  0  0  0  0  0
  -12.3830   11.7350   63.4030 O   0  0  0  0  0  0  0  0  0  0  0  0
  -11.3860   14.5720   65.4560 C   0  0  0  0  0  0  0  0  0  0  0  0
  -12.6530   14.5450   63.4380 O   0  0  0  0  0  0  0  0  0  0  0  0
  -12.0780   15.0330   66.3450 O   0  0  0  0  0  0  0  0  0  0  0  0
  -10.6700   10.5760   65.2980 O   0  0  0  0  0  0  0  0  0  0  0  0
   -9.7460    9.9510   64.4310 O   0  0  0  0  0  0  0  0  0  0  0  0
  -13.1380   15.8400   73.3570 C   0  0  0  0  0  0  0  0  0  0  0  0
  -12.5820   15.5690   74.6570 O   0  0  0  0  0  0  0  0  0  0  0  0
  -12.5310   16.9000   74.1110 O   0  0  0  0  0  0  0  0  0  0  0  0
  1 37  1  0  0  0  0
  1  2  2  0  0  0  0
  1  6  1  0  0  0  0
  2  3  1  0  0  0  0
  2 16  1  0  0  0  0
  3  4  1  0  0  0  0
  4  5  2  0  0  0  0
  4 15  1  0  0  0  0
  5  6  1  0  0  0  0
  5  7  1  0  0  0  0
  7  8  2  0  0  0  0
  7 13  1  0  0  0  0
  8  9  1  0  0  0  0
  9 10  2  0  0  0  0
  9 11  1  0  0  0  0
 11 12  2  0  0  0  0
 12 13  1  0  0  0  0
 13 14  2  0  0  0  0
 14 15  1  0  0  0  0
 14 49  1  0  0  0  0
 16 17  2  0  0  0  0
 16 21  1  0  0  0  0
 17 18  1  0  0  0  0
 18 19  2  0  0  0  0
 19 20  1  0  0  0  0
 20 21  2  0  0  0  0
 20 22  1  0  0  0  0
 21 23  1  0  0  0  0
 22 25  2  0  0  0  0
 23 24  2  0  0  0  0
 24 25  1  0  0  0  0
 24 26  1  0  0  0  0
 25 27  1  0  0  0  0
 26 29  1  0  0  0  0
 26 31  2  0  0  0  0
 27 28  1  0  0  0  0
 28 29  1  0  0  0  0
 28 32  1  0  0  0  0
 29 30  2  0  0  0  0
 32 33  1  0  0  0  0
 32 34  1  0  0  0  0
 32 35  1  0  0  0  0
 34 35  1  0  0  0  0
 35 36  2  0  0  0  0
 37 38  1  0  0  0  0
 38 39  1  0  0  0  0
 38 44  1  0  0  0  0
 39 40  1  0  0  0  0
 40 47  2  0  0  0  0
 40 41  1  0  0  0  0
 41 42  1  0  0  0  0
 41 43  2  0  0  0  0
 42 44  1  0  0  0  0
 42 45  2  0  0  0  0
 44 46  2  0  0  0  0
 47 48  1  0  0  0  0
 49 50  1  0  0  0  0
 49 51  1  0  0  0  0
 50 51  1  0  0  0  0
M  CHG  1  47   1
M  END