
 OpenBabel09252023053D

 48 55  0  0  1  0  0  0  0  0999 V2000
   -9.8730   15.6900   67.7020 C   0  0  0  0  0  0  0  0  0  0  0  0
   -9.8480   16.8810   68.3430 C   0  0  0  0  0  0  0  0  0  0  0  0
  -10.4260   17.0840   69.5980 O   0  0  0  0  0  0  0  0  0  0  0  0
  -11.0910   16.0380   70.2180 C   0  0  0  0  0  0  0  0  0  0  0  0
  -11.0790   14.8010   69.7010 C   0  0  0  0  0  0  0  0  0  0  0  0
  -10.4380   14.4740   68.4000 C   0  0  0  0  0  0  0  0  0  0  0  0
  -11.8080   13.7280   70.4240 C   0  0  0  0  0  0  0  0  0  0  0  0
  -11.7730   12.5100   69.9970 N   0  0  0  0  0  0  0  0  0  0  0  0
  -12.4710   11.5360   70.6830 C   0  0  0  0  0  0  0  0  0  0  0  0
  -12.3680   10.3810   70.3020 O   0  0  0  0  0  0  0  0  0  0  0  0
  -13.2850   11.8070   71.7680 N   0  0  0  0  0  0  0  0  0  0  0  0
  -13.3320   13.0130   72.2190 C   0  0  0  0  0  0  0  0  0  0  0  0
  -12.5790   14.1180   71.6240 C   0  0  0  0  0  0  0  0  0  0  0  0
  -12.5580   15.3970   72.0500 C   0  0  0  0  0  0  0  0  0  0  0  0
  -11.7800   16.3260   71.3700 N   0  0  0  0  0  0  0  0  0  0  0  0
   -9.2940   18.1220   67.7670 C   0  0  0  0  0  0  0  0  0  0  0  0
  -10.2430   18.7840   67.0630 N   0  0  0  0  0  0  0  0  0  0  0  0
   -9.9070   19.9890   66.6230 C   0  0  0  0  0  0  0  0  0  0  0  0
   -8.7370   20.5820   66.8330 N   0  0  0  0  0  0  0  0  0  0  0  0
   -7.7980   19.9240   67.5340 C   0  0  0  0  0  0  0  0  0  0  0  0
   -7.9880   18.6340   68.0510 C   0  0  0  0  0  0  0  0  0  0  0  0
   -6.5790   20.5680   67.7560 C   0  0  0  0  0  0  0  0  0  0  0  0
   -6.8810   18.0270   68.7820 C   0  0  0  0  0  0  0  0  0  0  0  0
   -6.9370   16.5580   69.1330 C   0  0  0  0  0  0  0  0  0  0  0  0
   -5.6870   18.7800   69.1000 C   0  0  0  0  0  0  0  0  0  0  0  0
   -4.6030   18.4010   69.9370 C   0  0  0  0  0  0  0  0  0  0  0  0
   -5.5390   20.0430   68.5110 C   0  0  0  0  0  0  0  0  0  0  0  0
   -4.6260   17.3050   70.7660 O   0  0  0  0  0  0  0  0  0  0  0  0
   -3.4660   19.1900   70.0200 C   0  0  0  0  0  0  0  0  0  0  0  0
   -2.4130   18.8050   70.8040 O   0  0  0  0  0  0  0  0  0  0  0  0
   -3.3620   20.3580   69.3880 N   0  0  0  0  0  0  0  0  0  0  0  0
   -4.4230   20.7900   68.6520 N   0  0  0  0  0  0  0  0  0  0  0  0
   -6.3930   21.8350   67.2100 O   0  0  0  0  0  0  0  0  0  0  0  0
   -9.3110   15.5340   66.4380 O   0  0  0  0  0  0  0  0  0  0  0  0
  -10.0450   14.7220   65.5090 C   0  0  0  0  0  0  0  0  0  0  0  0
  -10.6730   13.6180   66.1650 O   0  0  0  0  0  0  0  0  0  0  0  0
  -11.2420   12.7240   65.2760 C   0  0  0  0  0  0  0  0  0  0  0  0
  -11.1470   11.4020   65.4570 C   0  0  0  0  0  0  0  0  0  0  0  0
  -11.9990   13.2360   64.1030 C   0  0  0  0  0  0  0  0  0  0  0  0
  -10.4620   10.8440   66.5060 O   0  0  0  0  0  0  0  0  0  0  0  0
  -12.1720   14.7390   64.1410 C   0  0  0  0  0  0  0  0  0  0  0  0
  -12.3940   12.5540   63.1740 O   0  0  0  0  0  0  0  0  0  0  0  0
  -11.0750   15.5720   64.7720 C   0  0  0  0  0  0  0  0  0  0  0  0
  -13.1800   15.2550   63.6900 O   0  0  0  0  0  0  0  0  0  0  0  0
  -11.0120   16.7780   64.5860 O   0  0  0  0  0  0  0  0  0  0  0  0
  -13.3280   15.9080   73.2080 C   0  0  0  0  0  0  0  0  0  0  0  0
  -13.0030   15.5430   74.5590 O   0  0  0  0  0  0  0  0  0  0  0  0
  -12.7860   16.8920   74.1040 O   0  0  0  0  0  0  0  0  0  0  0  0
  1 34  1  0  0  0  0
  1  2  2  0  0  0  0
  1  6  1  0  0  0  0
  2  3  1  0  0  0  0
  2 16  1  0  0  0  0
  3  4  1  0  0  0  0
  4  5  2  0  0  0  0
  4 15  1  0  0  0  0
  5  6  1  0  0  0  0
  5  7  1  0  0  0  0
  7  8  2  0  0  0  0
  7 13  1  0  0  0  0
  8  9  1  0  0  0  0
  9 10  2  0  0  0  0
  9 11  1  0  0  0  0
 11 12  2  0  0  0  0
 12 13  1  0  0  0  0
 13 14  2  0  0  0  0
 14 15  1  0  0  0  0
 14 46  1  0  0  0  0
 16 17  2  0  0  0  0
 16 21  1  0  0  0  0
 17 18  1  0  0  0  0
 18 19  2  0  0  0  0
 19 20  1  0  0  0  0
 20 21  2  0  0  0  0
 20 22  1  0  0  0  0
 21 23  1  0  0  0  0
 22 27  2  0  0  0  0
 22 33  1  0  0  0  0
 23 24  1  0  0  0  0
 23 25  2  0  0  0  0
 25 26  1  0  0  0  0
 25 27  1  0  0  0  0
 26 28  1  0  0  0  0
 26 29  2  0  0  0  0
 27 32  1  0  0  0  0
 29 30  1  0  0  0  0
 29 31  1  0  0  0  0
 31 32  2  0  0  0  0
 34 35  1  0  0  0  0
 35 36  1  0  0  0  0
 35 43  1  0  0  0  0
 36 37  1  0  0  0  0
 37 38  2  0  0  0  0
 37 39  1  0  0  0  0
 38 40  1  0  0  0  0
 39 41  1  0  0  0  0
 39 42  2  0  0  0  0
 41 43  1  0  0  0  0
 41 44  2  0  0  0  0
 43 45  2  0  0  0  0
 46 47  1  0  0  0  0
 46 48  1  0  0  0  0
 47 48  1  0  0  0  0
M  END
