
 OpenBabel11242000273D

 54 63  0  0  1  0  0  0  0  0999 V2000
  -10.8520   15.6190   67.4920 C   0  0  0  0  0  0  0  0  0  0  0  0
  -10.4050   16.6600   68.2370 C   0  0  0  0  0  0  0  0  0  0  0  0
  -10.6330   16.7260   69.6170 O   0  0  0  0  0  0  0  0  0  0  0  0
  -11.3710   15.7300   70.2520 C   0  0  0  0  0  0  0  0  0  0  0  0
  -11.8270   14.6560   69.5920 C   0  0  0  0  0  0  0  0  0  0  0  0
  -11.5900   14.4660   68.1400 C   0  0  0  0  0  0  0  0  0  0  0  0
  -12.6780   13.6180   70.2790 C   0  0  0  0  0  0  0  0  0  0  0  0
  -12.0100   12.3290   70.1670 N   0  0  0  0  0  0  0  0  0  0  0  0
  -12.6250   11.2710   70.7520 C   0  0  0  0  0  0  0  0  0  0  0  0
  -12.6130   10.0930   70.2450 N   0  0  0  0  0  0  0  0  0  0  0  0
  -13.1900   11.5130   71.9510 N   0  0  0  0  0  0  0  0  0  0  0  0
  -13.7300   12.7850   72.3580 C   0  0  0  0  0  0  0  0  0  0  0  0
  -12.9120   13.8780   71.7390 C   0  0  0  0  0  0  0  0  0  0  0  0
  -12.3970   14.9720   72.3500 C   0  0  0  0  0  0  0  0  0  0  0  0
  -11.6570   15.8800   71.5830 N   0  0  0  0  0  0  0  0  0  0  0  0
   -9.6780   17.8530   67.6870 C   0  0  0  0  0  0  0  0  0  0  0  0
  -10.3000   18.6130   66.6960 C   0  0  0  0  0  0  0  0  0  0  0  0
   -9.7150   19.6940   66.1780 N   0  0  0  0  0  0  0  0  0  0  0  0
  -10.3090   20.3320   65.1520 F   0  0  0  0  0  0  0  0  0  0  0  0
   -8.5720   20.1600   66.6410 N   0  0  0  0  0  0  0  0  0  0  0  0
   -7.8750   19.5130   67.6040 C   0  0  0  0  0  0  0  0  0  0  0  0
   -8.0900   21.2850   66.0790 F   0  0  0  0  0  0  0  0  0  0  0  0
   -8.3890   18.2840   68.1210 C   0  0  0  0  0  0  0  0  0  0  0  0
   -6.6390   20.0460   68.0500 C   0  0  0  0  0  0  0  0  0  0  0  0
   -7.5240   17.5480   68.9840 C   0  0  0  0  0  0  0  0  0  0  0  0
   -6.2330   18.0010   69.2990 C   0  0  0  0  0  0  0  0  0  0  0  0
   -5.8280   19.2590   68.8720 C   0  0  0  0  0  0  0  0  0  0  0  0
   -5.2130   17.0910   69.8960 C   0  0  0  0  0  0  0  0  0  0  0  0
   -4.5520   19.6990   69.1250 O   0  0  0  0  0  0  0  0  0  0  0  0
   -3.6190   18.6270   68.8240 C   0  0  0  0  0  0  0  0  0  0  0  0
   -3.7250   17.4850   69.7410 C   0  0  0  0  0  0  0  0  0  0  0  0
   -3.6420   18.2120   67.4810 O   0  0  0  0  0  0  0  0  0  0  0  0
   -2.4480   18.9350   67.8530 C   0  0  0  0  0  0  0  0  0  0  0  0
   -2.7920   16.9180   70.2430 O   0  0  0  0  0  0  0  0  0  0  0  0
   -2.1810   20.3330   68.0650 O   0  0  0  0  0  0  0  0  0  0  0  0
   -2.5000   20.0530   66.8220 C   0  0  0  0  0  0  0  0  0  0  0  0
   -3.4520   20.4940   66.1880 O   0  0  0  0  0  0  0  0  0  0  0  0
   -5.5540   16.0210   70.3610 O   0  0  0  0  0  0  0  0  0  0  0  0
   -6.1170   21.2440   67.4910 N   0  0  0  0  0  0  0  0  0  0  0  0
  -10.6950   15.5980   66.1120 O   0  0  0  0  0  0  0  0  0  0  0  0
  -10.3840   14.3320   65.4830 C   0  0  0  0  0  0  0  0  0  0  0  0
  -10.0010   13.3360   66.4190 O   0  0  0  0  0  0  0  0  0  0  0  0
   -9.7590   12.0670   65.9180 C   0  0  0  0  0  0  0  0  0  0  0  0
   -9.0720   11.1820   66.6490 C   0  0  0  0  0  0  0  0  0  0  0  0
  -10.3420   11.6110   64.6210 C   0  0  0  0  0  0  0  0  0  0  0  0
   -8.5650   11.4910   67.8870 O   0  0  0  0  0  0  0  0  0  0  0  0
  -11.3910   12.5650   64.0660 C   0  0  0  0  0  0  0  0  0  0  0  0
  -10.0190   10.5930   64.0390 O   0  0  0  0  0  0  0  0  0  0  0  0
  -11.6490   13.8440   64.8200 C   0  0  0  0  0  0  0  0  0  0  0  0
  -11.9470   12.3840   62.9990 O   0  0  0  0  0  0  0  0  0  0  0  0
  -12.7380   14.4010   64.8700 O   0  0  0  0  0  0  0  0  0  0  0  0
  -12.5590   15.2840   73.7870 C   0  0  0  0  0  0  0  0  0  0  0  0
  -13.3940   16.3770   74.1640 N   0  0  0  0  0  0  0  0  0  0  0  0
  -12.1670   16.5680   74.2500 N   0  0  0  0  0  0  0  0  0  0  0  0
  1 40  1  0  0  0  0
  1  2  2  0  0  0  0
  1  6  1  0  0  0  0
  2  3  1  0  0  0  0
  2 16  1  0  0  0  0
  3  4  1  0  0  0  0
  4  5  2  0  0  0  0
  4 15  1  0  0  0  0
  5  6  1  0  0  0  0
  5  7  1  0  0  0  0
  7  8  1  0  0  0  0
  7 13  1  0  0  0  0
  8  9  1  0  0  0  0
  9 10  2  0  0  0  0
  9 11  1  0  0  0  0
 11 12  1  0  0  0  0
 12 13  1  0  0  0  0
 13 14  2  0  0  0  0
 14 15  1  0  0  0  0
 14 52  1  0  0  0  0
 16 17  2  0  0  0  0
 16 23  1  0  0  0  0
 17 18  1  0  0  0  0
 18 19  1  0  0  0  0
 18 20  2  0  0  0  0
 20 21  1  0  0  0  0
 20 22  1  0  0  0  0
 21 23  2  0  0  0  0
 21 24  1  0  0  0  0
 23 25  1  0  0  0  0
 24 27  2  0  0  0  0
 24 39  1  0  0  0  0
 25 26  2  0  0  0  0
 26 27  1  0  0  0  0
 26 28  1  0  0  0  0
 27 29  1  0  0  0  0
 28 31  1  0  0  0  0
 28 38  2  0  0  0  0
 29 30  1  0  0  0  0
 30 31  1  0  0  0  0
 30 32  1  0  0  0  0
 30 33  1  0  0  0  0
 31 34  2  0  0  0  0
 32 33  1  0  0  0  0
 33 35  1  0  0  0  0
 33 36  1  0  0  0  0
 35 36  1  0  0  0  0
 36 37  2  0  0  0  0
 40 41  1  0  0  0  0
 41 42  1  0  0  0  0
 41 49  1  0  0  0  0
 42 43  1  0  0  0  0
 43 44  2  0  0  0  0
 43 45  1  0  0  0  0
 44 46  1  0  0  0  0
 45 47  1  0  0  0  0
 45 48  2  0  0  0  0
 47 49  1  0  0  0  0
 47 50  2  0  0  0  0
 49 51  2  0  0  0  0
 52 53  1  0  0  0  0
 52 54  1  0  0  0  0
 53 54  2  0  0  0  0
M  CHG  2  18   1  20   1
M  END