
 OpenBabel11232002543D

 53 61  0  0  1  0  0  0  0  0999 V2000
  -11.1260   15.7390   67.3780 C   0  0  0  0  0  0  0  0  0  0  0  0
  -10.5380   16.7220   68.1030 C   0  0  0  0  0  0  0  0  0  0  0  0
  -10.7030   16.8010   69.4970 O   0  0  0  0  0  0  0  0  0  0  0  0
  -11.4430   15.8210   70.1800 C   0  0  0  0  0  0  0  0  0  0  0  0
  -11.9630   14.7670   69.5280 C   0  0  0  0  0  0  0  0  0  0  0  0
  -11.8840   14.6260   68.0470 C   0  0  0  0  0  0  0  0  0  0  0  0
  -12.6700   13.6440   70.2300 C   0  0  0  0  0  0  0  0  0  0  0  0
  -11.8530   12.4960   70.0780 O   0  0  0  0  0  0  0  0  0  0  0  0
  -12.3000   11.3400   70.6400 C   0  0  0  0  0  0  0  0  0  0  0  0
  -11.8850   10.2540   70.2720 O   0  0  0  0  0  0  0  0  0  0  0  0
  -13.2300   11.4900   71.6150 O   0  0  0  0  0  0  0  0  0  0  0  0
  -13.4490   12.7140   72.3390 C   0  0  0  0  0  0  0  0  0  0  0  0
  -12.7960   13.8870   71.6840 C   0  0  0  0  0  0  0  0  0  0  0  0
  -12.3090   14.9980   72.2850 C   0  0  0  0  0  0  0  0  0  0  0  0
  -11.6170   15.9570   71.5410 O   0  0  0  0  0  0  0  0  0  0  0  0
   -9.6510   17.7690   67.4740 C   0  0  0  0  0  0  0  0  0  0  0  0
  -10.2400   18.6630   66.5680 C   0  0  0  0  0  0  0  0  0  0  0  0
   -9.5480   19.6690   66.0260 N   0  0  0  0  0  0  0  0  0  0  0  0
  -10.1810   20.5300   65.2030 F   0  0  0  0  0  0  0  0  0  0  0  0
   -8.2720   19.8580   66.2660 N   0  0  0  0  0  0  0  0  0  0  0  0
   -7.6190   19.0230   67.0750 C   0  0  0  0  0  0  0  0  0  0  0  0
   -8.2580   17.9360   67.7140 C   0  0  0  0  0  0  0  0  0  0  0  0
   -6.2550   19.2440   67.2880 C   0  0  0  0  0  0  0  0  0  0  0  0
   -7.4480   17.1110   68.5360 C   0  0  0  0  0  0  0  0  0  0  0  0
   -6.0710   17.3520   68.7070 C   0  0  0  0  0  0  0  0  0  0  0  0
   -5.2510   16.4170   69.4720 C   0  0  0  0  0  0  0  0  0  0  0  0
   -5.4680   18.4330   68.1050 C   0  0  0  0  0  0  0  0  0  0  0  0
   -5.7030   15.3180   69.7610 O   0  0  0  0  0  0  0  0  0  0  0  0
   -3.8710   16.8730   69.8940 C   0  0  0  0  0  0  0  0  0  0  0  0
   -3.2540   16.2470   70.7440 O   0  0  0  0  0  0  0  0  0  0  0  0
   -3.4140   18.2030   69.3230 C   0  0  0  0  0  0  0  0  0  0  0  0
   -4.1400   18.7100   68.1940 O   0  0  0  0  0  0  0  0  0  0  0  0
   -5.6760   20.2840   66.6650 F   0  0  0  0  0  0  0  0  0  0  0  0
   -3.3020   19.2690   70.3790 C   0  0  0  0  0  0  0  0  0  0  0  0
   -4.3880   19.3240   71.3370 O   0  0  0  0  0  0  0  0  0  0  0  0
   -1.9930   19.4310   70.9190 O   0  0  0  0  0  0  0  0  0  0  0  0
   -2.5140   20.5060   70.2650 C   0  0  0  0  0  0  0  0  0  0  0  0
   -2.7430   21.6040   70.6830 O   0  0  0  0  0  0  0  0  0  0  0  0
  -10.9800   15.6660   65.9980 O   0  0  0  0  0  0  0  0  0  0  0  0
  -10.6270   14.3830   65.4480 C   0  0  0  0  0  0  0  0  0  0  0  0
  -10.0940   13.5460   66.4620 O   0  0  0  0  0  0  0  0  0  0  0  0
   -9.7350   12.2730   66.0500 C   0  0  0  0  0  0  0  0  0  0  0  0
   -8.7460   11.6290   66.6800 C   0  0  0  0  0  0  0  0  0  0  0  0
  -10.4510   11.5660   64.9390 C   0  0  0  0  0  0  0  0  0  0  0  0
   -8.0320   12.1980   67.7080 O   0  0  0  0  0  0  0  0  0  0  0  0
  -11.5040   12.4130   64.2420 C   0  0  0  0  0  0  0  0  0  0  0  0
  -10.2000   10.4280   64.5860 O   0  0  0  0  0  0  0  0  0  0  0  0
  -11.8590   13.7370   64.8630 C   0  0  0  0  0  0  0  0  0  0  0  0
  -11.9410   12.1310   63.1420 O   0  0  0  0  0  0  0  0  0  0  0  0
  -12.9870   14.2030   64.8760 O   0  0  0  0  0  0  0  0  0  0  0  0
  -12.4290   15.2670   73.7310 C   0  0  0  0  0  0  0  0  0  0  0  0
  -13.4200   16.2150   74.1250 N   0  0  0  0  0  0  0  0  0  0  0  0
  -12.2400   16.6030   74.1620 N   0  0  0  0  0  0  0  0  0  0  0  0
  1 39  1  0  0  0  0
  1  2  2  0  0  0  0
  1  6  1  0  0  0  0
  2  3  1  0  0  0  0
  2 16  1  0  0  0  0
  3  4  1  0  0  0  0
  4  5  2  0  0  0  0
  4 15  1  0  0  0  0
  5  6  1  0  0  0  0
  5  7  1  0  0  0  0
  7  8  1  0  0  0  0
  7 13  1  0  0  0  0
  8  9  1  0  0  0  0
  9 10  2  0  0  0  0
  9 11  1  0  0  0  0
 11 12  1  0  0  0  0
 12 13  1  0  0  0  0
 13 14  2  0  0  0  0
 14 15  1  0  0  0  0
 14 51  1  0  0  0  0
 16 17  2  0  0  0  0
 16 22  1  0  0  0  0
 17 18  1  0  0  0  0
 18 19  1  0  0  0  0
 18 20  2  0  0  0  0
 20 21  1  0  0  0  0
 21 22  2  0  0  0  0
 21 23  1  0  0  0  0
 22 24  1  0  0  0  0
 23 27  2  0  0  0  0
 23 33  1  0  0  0  0
 24 25  2  0  0  0  0
 25 26  1  0  0  0  0
 25 27  1  0  0  0  0
 26 28  2  0  0  0  0
 26 29  1  0  0  0  0
 27 32  1  0  0  0  0
 29 30  2  0  0  0  0
 29 31  1  0  0  0  0
 31 32  1  0  0  0  0
 31 34  1  0  0  0  0
 34 35  1  0  0  0  0
 34 36  1  0  0  0  0
 34 37  1  0  0  0  0
 36 37  1  0  0  0  0
 37 38  2  0  0  0  0
 39 40  1  0  0  0  0
 40 41  1  0  0  0  0
 40 48  1  0  0  0  0
 41 42  1  0  0  0  0
 42 43  2  0  0  0  0
 42 44  1  0  0  0  0
 43 45  1  0  0  0  0
 44 46  1  0  0  0  0
 44 47  2  0  0  0  0
 46 48  1  0  0  0  0
 46 49  2  0  0  0  0
 48 50  2  0  0  0  0
 51 52  1  0  0  0  0
 51 53  1  0  0  0  0
 52 53  2  0  0  0  0
M  CHG  2  15   1  18   1
M  END