
 OpenBabel11272002243D

 54 62  0  0  1  0  0  0  0  0999 V2000
  -10.8600   15.7470   67.1680 C   0  0  0  0  0  0  0  0  0  0  0  0
  -10.6370   16.8750   67.8780 C   0  0  0  0  0  0  0  0  0  0  0  0
  -10.9790   17.0120   69.2270 O   0  0  0  0  0  0  0  0  0  0  0  0
  -11.6100   15.9580   69.8850 C   0  0  0  0  0  0  0  0  0  0  0  0
  -11.8110   14.7750   69.2750 C   0  0  0  0  0  0  0  0  0  0  0  0
  -11.4160   14.5280   67.8530 C   0  0  0  0  0  0  0  0  0  0  0  0
  -12.5320   13.6410   69.9370 C   0  0  0  0  0  0  0  0  0  0  0  0
  -11.6590   12.5380   70.0300 O   0  0  0  0  0  0  0  0  0  0  0  0
  -12.1410   11.4340   70.6650 C   0  0  0  0  0  0  0  0  0  0  0  0
  -11.6240   10.3410   70.4980 O   0  0  0  0  0  0  0  0  0  0  0  0
  -13.2100   11.6150   71.4880 O   0  0  0  0  0  0  0  0  0  0  0  0
  -13.5840   12.8320   71.9210 C   0  0  0  0  0  0  0  0  0  0  0  0
  -14.4660   13.0060   72.7480 O   0  0  0  0  0  0  0  0  0  0  0  0
  -12.9150   13.9750   71.3100 C   0  0  0  0  0  0  0  0  0  0  0  0
  -12.6960   15.1740   71.8940 C   0  0  0  0  0  0  0  0  0  0  0  0
  -12.0350   16.1740   71.1820 O   0  0  0  0  0  0  0  0  0  0  0  0
   -9.9910   18.0690   67.2870 C   0  0  0  0  0  0  0  0  0  0  0  0
  -10.7200   18.6590   66.3120 N   0  0  0  0  0  0  0  0  0  0  0  0
  -10.2280   19.8000   65.7820 C   0  0  0  0  0  0  0  0  0  0  0  0
  -10.9420   20.3870   64.8130 F   0  0  0  0  0  0  0  0  0  0  0  0
   -9.0330   20.3800   66.1600 C   0  0  0  0  0  0  0  0  0  0  0  0
   -8.2580   19.7480   67.1380 C   0  0  0  0  0  0  0  0  0  0  0  0
   -8.7280   18.5440   67.7100 C   0  0  0  0  0  0  0  0  0  0  0  0
   -7.0190   20.2770   67.5520 C   0  0  0  0  0  0  0  0  0  0  0  0
   -7.8940   17.8820   68.6350 C   0  0  0  0  0  0  0  0  0  0  0  0
   -6.6410   18.4070   68.9830 C   0  0  0  0  0  0  0  0  0  0  0  0
   -5.7450   17.6160   69.8280 C   0  0  0  0  0  0  0  0  0  0  0  0
   -6.2080   19.6230   68.4820 C   0  0  0  0  0  0  0  0  0  0  0  0
   -6.0980   16.5540   70.3170 O   0  0  0  0  0  0  0  0  0  0  0  0
   -4.3470   18.1520   69.9970 C   0  0  0  0  0  0  0  0  0  0  0  0
   -3.4140   17.3940   70.2130 O   0  0  0  0  0  0  0  0  0  0  0  0
   -4.2510   19.6520   69.8790 C   0  0  0  0  0  0  0  0  0  0  0  0
   -5.0210   20.2150   68.8070 O   0  0  0  0  0  0  0  0  0  0  0  0
   -6.5930   21.4330   67.0190 F   0  0  0  0  0  0  0  0  0  0  0  0
   -4.5910   20.3210   71.1790 C   0  0  0  0  0  0  0  0  0  0  0  0
   -5.9850   20.6090   71.4260 O   0  0  0  0  0  0  0  0  0  0  0  0
   -3.8940   19.8470   72.3330 O   0  0  0  0  0  0  0  0  0  0  0  0
   -3.5730   21.0850   71.8990 C   0  0  0  0  0  0  0  0  0  0  0  0
   -2.5060   21.5300   71.5590 O   0  0  0  0  0  0  0  0  0  0  0  0
  -10.5360   15.6700   65.8160 O   0  0  0  0  0  0  0  0  0  0  0  0
  -10.3320   14.3640   65.2390 C   0  0  0  0  0  0  0  0  0  0  0  0
   -9.9950   13.4080   66.2460 O   0  0  0  0  0  0  0  0  0  0  0  0
   -9.6680   12.1550   65.7800 C   0  0  0  0  0  0  0  0  0  0  0  0
   -8.6660   11.4540   66.3270 C   0  0  0  0  0  0  0  0  0  0  0  0
  -10.4930   11.5220   64.7180 C   0  0  0  0  0  0  0  0  0  0  0  0
   -7.8310   11.9560   67.3000 O   0  0  0  0  0  0  0  0  0  0  0  0
  -11.5570   12.4380   64.1410 C   0  0  0  0  0  0  0  0  0  0  0  0
  -10.3320   10.3790   64.3300 O   0  0  0  0  0  0  0  0  0  0  0  0
  -11.6100   13.8920   64.5610 C   0  0  0  0  0  0  0  0  0  0  0  0
  -12.3690   12.0020   63.3400 O   0  0  0  0  0  0  0  0  0  0  0  0
  -12.6100   14.5680   64.3710 O   0  0  0  0  0  0  0  0  0  0  0  0
  -13.1260   15.5140   73.2760 C   0  0  0  0  0  0  0  0  0  0  0  0
  -12.2730   15.2460   74.4030 O   0  0  0  0  0  0  0  0  0  0  0  0
  -12.5150   16.6020   73.9830 O   0  0  0  0  0  0  0  0  0  0  0  0
  1 40  1  0  0  0  0
  1  2  2  0  0  0  0
  1  6  1  0  0  0  0
  2  3  1  0  0  0  0
  2 17  1  0  0  0  0
  3  4  1  0  0  0  0
  4  5  2  0  0  0  0
  4 16  1  0  0  0  0
  5  6  1  0  0  0  0
  5  7  1  0  0  0  0
  7  8  1  0  0  0  0
  7 14  1  0  0  0  0
  8  9  1  0  0  0  0
  9 10  2  0  0  0  0
  9 11  1  0  0  0  0
 11 12  1  0  0  0  0
 12 13  2  0  0  0  0
 12 14  1  0  0  0  0
 14 15  2  0  0  0  0
 15 16  1  0  0  0  0
 15 52  1  0  0  0  0
 17 18  2  0  0  0  0
 17 23  1  0  0  0  0
 18 19  1  0  0  0  0
 19 20  1  0  0  0  0
 19 21  2  0  0  0  0
 21 22  1  0  0  0  0
 22 23  2  0  0  0  0
 22 24  1  0  0  0  0
 23 25  1  0  0  0  0
 24 28  2  0  0  0  0
 24 34  1  0  0  0  0
 25 26  2  0  0  0  0
 26 27  1  0  0  0  0
 26 28  1  0  0  0  0
 27 29  2  0  0  0  0
 27 30  1  0  0  0  0
 28 33  1  0  0  0  0
 30 31  2  0  0  0  0
 30 32  1  0  0  0  0
 32 33  1  0  0  0  0
 32 35  1  0  0  0  0
 35 36  1  0  0  0  0
 35 37  1  0  0  0  0
 35 38  1  0  0  0  0
 37 38  1  0  0  0  0
 38 39  2  0  0  0  0
 40 41  1  0  0  0  0
 41 42  1  0  0  0  0
 41 49  1  0  0  0  0
 42 43  1  0  0  0  0
 43 44  2  0  0  0  0
 43 45  1  0  0  0  0
 44 46  1  0  0  0  0
 45 47  1  0  0  0  0
 45 48  2  0  0  0  0
 47 49  1  0  0  0  0
 47 50  2  0  0  0  0
 49 51  2  0  0  0  0
 52 53  1  0  0  0  0
 52 54  1  0  0  0  0
 53 54  1  0  0  0  0
M  CHG  1  16   1
M  END