
 OpenBabel11232002053D

 52 61  0  0  1  0  0  0  0  0999 V2000
  -10.9050   15.7710   67.2960 C   0  0  0  0  0  0  0  0  0  0  0  0
  -10.6230   16.8940   67.9980 C   0  0  0  0  0  0  0  0  0  0  0  0
  -10.8820   16.9570   69.3720 O   0  0  0  0  0  0  0  0  0  0  0  0
  -11.6410   16.0000   70.0110 C   0  0  0  0  0  0  0  0  0  0  0  0
  -11.9150   14.8310   69.4130 C   0  0  0  0  0  0  0  0  0  0  0  0
  -11.5390   14.5810   67.9850 C   0  0  0  0  0  0  0  0  0  0  0  0
  -12.6420   13.7290   70.1180 C   0  0  0  0  0  0  0  0  0  0  0  0
  -11.7710   12.6120   70.2020 O   0  0  0  0  0  0  0  0  0  0  0  0
  -12.3200   11.4940   70.7510 C   0  0  0  0  0  0  0  0  0  0  0  0
  -11.8600   10.3810   70.5620 O   0  0  0  0  0  0  0  0  0  0  0  0
  -13.4430   11.7200   71.4790 O   0  0  0  0  0  0  0  0  0  0  0  0
  -13.5080   12.9130   72.2500 C   0  0  0  0  0  0  0  0  0  0  0  0
  -12.9640   14.0940   71.5190 C   0  0  0  0  0  0  0  0  0  0  0  0
  -12.7240   15.3220   72.0380 C   0  0  0  0  0  0  0  0  0  0  0  0
  -12.0900   16.2960   71.2790 O   0  0  0  0  0  0  0  0  0  0  0  0
  -14.8670   13.2110   72.4990 O   0  0  0  0  0  0  0  0  0  0  0  0
   -9.9830   18.1550   67.4850 C   0  0  0  0  0  0  0  0  0  0  0  0
  -10.6500   18.9770   66.5860 C   0  0  0  0  0  0  0  0  0  0  0  0
  -10.0620   20.0070   65.9460 N   0  0  0  0  0  0  0  0  0  0  0  0
   -8.7360   20.2560   66.1360 N   0  0  0  0  0  0  0  0  0  0  0  0
   -8.0130   19.5190   66.9800 C   0  0  0  0  0  0  0  0  0  0  0  0
   -8.6130   18.4810   67.7270 C   0  0  0  0  0  0  0  0  0  0  0  0
   -6.6410   19.7600   67.0870 C   0  0  0  0  0  0  0  0  0  0  0  0
   -7.7890   17.7930   68.6430 C   0  0  0  0  0  0  0  0  0  0  0  0
   -6.4130   17.9700   68.6550 C   0  0  0  0  0  0  0  0  0  0  0  0
   -5.8280   18.9730   67.9000 C   0  0  0  0  0  0  0  0  0  0  0  0
   -5.5730   17.0030   69.3670 C   0  0  0  0  0  0  0  0  0  0  0  0
   -4.4720   19.1930   67.8850 O   0  0  0  0  0  0  0  0  0  0  0  0
   -3.8030   18.7340   69.0880 C   0  0  0  0  0  0  0  0  0  0  0  0
   -4.1210   17.3590   69.5060 C   0  0  0  0  0  0  0  0  0  0  0  0
   -2.4710   19.1360   69.2710 O   0  0  0  0  0  0  0  0  0  0  0  0
   -3.4710   19.7320   70.1590 C   0  0  0  0  0  0  0  0  0  0  0  0
   -3.2860   16.4860   69.9670 N   0  0  0  0  0  0  0  0  0  0  0  0
   -4.0960   21.0100   69.7620 O   0  0  0  0  0  0  0  0  0  0  0  0
   -2.9910   21.0530   70.4640 C   0  0  0  0  0  0  0  0  0  0  0  0
   -2.7140   21.6030   71.5140 O   0  0  0  0  0  0  0  0  0  0  0  0
   -6.0290   15.8550   69.8060 N   0  0  0  0  0  0  0  0  0  0  0  0
  -10.7220   15.7040   65.9230 O   0  0  0  0  0  0  0  0  0  0  0  0
  -10.5090   14.4130   65.3160 C   0  0  0  0  0  0  0  0  0  0  0  0
  -10.2720   13.4060   66.2990 O   0  0  0  0  0  0  0  0  0  0  0  0
   -9.9400   12.1800   65.7560 C   0  0  0  0  0  0  0  0  0  0  0  0
   -8.9760   11.4210   66.2900 C   0  0  0  0  0  0  0  0  0  0  0  0
  -10.7060   11.6710   64.5880 C   0  0  0  0  0  0  0  0  0  0  0  0
   -8.2270   11.8180   67.3720 O   0  0  0  0  0  0  0  0  0  0  0  0
  -11.8700   12.5710   64.2260 C   0  0  0  0  0  0  0  0  0  0  0  0
  -10.4150   10.6780   63.9470 O   0  0  0  0  0  0  0  0  0  0  0  0
  -11.7480   14.0560   64.5040 C   0  0  0  0  0  0  0  0  0  0  0  0
  -12.8930   12.1000   63.7590 O   0  0  0  0  0  0  0  0  0  0  0  0
  -12.5540   14.8590   64.0570 O   0  0  0  0  0  0  0  0  0  0  0  0
  -13.0610   15.6970   73.4290 C   0  0  0  0  0  0  0  0  0  0  0  0
  -12.2470   15.2580   74.5260 O   0  0  0  0  0  0  0  0  0  0  0  0
  -12.2590   16.6490   74.1490 O   0  0  0  0  0  0  0  0  0  0  0  0
  1 38  1  0  0  0  0
  1  2  2  0  0  0  0
  1  6  1  0  0  0  0
  2  3  1  0  0  0  0
  2 17  1  0  0  0  0
  3  4  1  0  0  0  0
  4  5  2  0  0  0  0
  4 15  1  0  0  0  0
  5  6  1  0  0  0  0
  5  7  1  0  0  0  0
  7  8  1  0  0  0  0
  7 13  1  0  0  0  0
  8  9  1  0  0  0  0
  9 10  2  0  0  0  0
  9 11  1  0  0  0  0
 11 12  1  0  0  0  0
 12 13  1  0  0  0  0
 12 16  1  0  0  0  0
 13 14  2  0  0  0  0
 14 15  1  0  0  0  0
 14 50  1  0  0  0  0
 17 18  2  0  0  0  0
 17 22  1  0  0  0  0
 18 19  1  0  0  0  0
 19 20  2  0  0  0  0
 20 21  1  0  0  0  0
 21 22  2  0  0  0  0
 21 23  1  0  0  0  0
 22 24  1  0  0  0  0
 23 26  2  0  0  0  0
 24 25  2  0  0  0  0
 25 26  1  0  0  0  0
 25 27  1  0  0  0  0
 26 28  1  0  0  0  0
 27 30  1  0  0  0  0
 27 37  2  0  0  0  0
 28 29  1  0  0  0  0
 29 30  1  0  0  0  0
 29 31  1  0  0  0  0
 29 32  1  0  0  0  0
 30 33  2  0  0  0  0
 31 32  1  0  0  0  0
 32 34  1  0  0  0  0
 32 35  1  0  0  0  0
 34 35  1  0  0  0  0
 35 36  2  0  0  0  0
 38 39  1  0  0  0  0
 39 40  1  0  0  0  0
 39 47  1  0  0  0  0
 40 41  1  0  0  0  0
 41 42  2  0  0  0  0
 41 43  1  0  0  0  0
 42 44  1  0  0  0  0
 43 45  1  0  0  0  0
 43 46  2  0  0  0  0
 45 47  1  0  0  0  0
 45 48  2  0  0  0  0
 47 49  2  0  0  0  0
 50 51  1  0  0  0  0
 50 52  1  0  0  0  0
 51 52  1  0  0  0  0
M  CHG  1  15   1
M  END