
 OpenBabel11242001483D

 54 62  0  0  1  0  0  0  0  0999 V2000
  -10.1330   15.3780   67.4680 C   0  0  0  0  0  0  0  0  0  0  0  0
  -10.7860   14.3450   68.1390 C   0  0  0  0  0  0  0  0  0  0  0  0
  -11.4930   14.5610   69.3330 C   0  0  0  0  0  0  0  0  0  0  0  0
  -11.6120   15.8770   69.7840 C   0  0  0  0  0  0  0  0  0  0  0  0
  -11.0670   16.9080   69.0800 N   0  0  0  0  0  0  0  0  0  0  0  0
  -10.2970   16.6840   67.9670 C   0  0  0  0  0  0  0  0  0  0  0  0
  -12.2640   16.0780   70.9410 N   0  0  0  0  0  0  0  0  0  0  0  0
  -12.8110   15.1080   71.7030 C   0  0  0  0  0  0  0  0  0  0  0  0
  -12.6970   13.7710   71.2480 C   0  0  0  0  0  0  0  0  0  0  0  0
  -12.0430   13.5000   70.0560 C   0  0  0  0  0  0  0  0  0  0  0  0
  -11.9070   12.2490   69.5920 N   0  0  0  0  0  0  0  0  0  0  0  0
  -12.4340   11.2340   70.2810 C   0  0  0  0  0  0  0  0  0  0  0  0
  -12.3230    9.9810   69.7450 N   0  0  0  0  0  0  0  0  0  0  0  0
  -13.0540   11.3810   71.4430 N   0  0  0  0  0  0  0  0  0  0  0  0
  -13.1670   12.6310   71.8900 C   0  0  0  0  0  0  0  0  0  0  0  0
  -13.8090   12.7170   73.0810 O   0  0  0  0  0  0  0  0  0  0  0  0
   -9.6630   17.9220   67.3790 C   0  0  0  0  0  0  0  0  0  0  0  0
  -10.3900   18.7450   66.5160 C   0  0  0  0  0  0  0  0  0  0  0  0
   -9.8520   19.8360   65.9590 N   0  0  0  0  0  0  0  0  0  0  0  0
  -10.5940   20.5710   65.1080 F   0  0  0  0  0  0  0  0  0  0  0  0
   -8.6250   20.2350   66.2140 N   0  0  0  0  0  0  0  0  0  0  0  0
   -7.8630   19.5390   67.0560 C   0  0  0  0  0  0  0  0  0  0  0  0
   -8.3260   18.3550   67.6660 C   0  0  0  0  0  0  0  0  0  0  0  0
   -6.5710   20.0090   67.3410 C   0  0  0  0  0  0  0  0  0  0  0  0
   -7.4080   17.6940   68.5220 C   0  0  0  0  0  0  0  0  0  0  0  0
   -6.1400   18.2120   68.8250 C   0  0  0  0  0  0  0  0  0  0  0  0
   -5.2910   17.5070   69.7860 C   0  0  0  0  0  0  0  0  0  0  0  0
   -5.7040   19.3760   68.2360 C   0  0  0  0  0  0  0  0  0  0  0  0
   -5.7270   16.5450   70.4040 O   0  0  0  0  0  0  0  0  0  0  0  0
   -3.8890   18.0360   69.9650 C   0  0  0  0  0  0  0  0  0  0  0  0
   -3.0130   17.3200   70.4230 O   0  0  0  0  0  0  0  0  0  0  0  0
   -3.7220   19.4930   69.5830 C   0  0  0  0  0  0  0  0  0  0  0  0
   -4.4810   19.9390   68.4480 O   0  0  0  0  0  0  0  0  0  0  0  0
   -6.1580   21.1360   66.7390 F   0  0  0  0  0  0  0  0  0  0  0  0
   -4.0200   20.3680   70.7570 C   0  0  0  0  0  0  0  0  0  0  0  0
   -5.0750   21.3510   70.5740 O   0  0  0  0  0  0  0  0  0  0  0  0
   -3.9870   19.7200   72.0220 O   0  0  0  0  0  0  0  0  0  0  0  0
   -3.0550   20.6750   71.8170 C   0  0  0  0  0  0  0  0  0  0  0  0
   -2.8900   21.7300   72.3900 O   0  0  0  0  0  0  0  0  0  0  0  0
   -9.4000   15.1580   66.3330 O   0  0  0  0  0  0  0  0  0  0  0  0
   -9.8650   14.1700   65.3820 C   0  0  0  0  0  0  0  0  0  0  0  0
  -10.2060   12.9750   66.0770 O   0  0  0  0  0  0  0  0  0  0  0  0
  -10.5200   11.9540   65.1890 C   0  0  0  0  0  0  0  0  0  0  0  0
   -9.9350   10.7530   65.2680 C   0  0  0  0  0  0  0  0  0  0  0  0
  -11.4900   12.1990   64.0820 C   0  0  0  0  0  0  0  0  0  0  0  0
   -8.9590   10.4640   66.1870 O   0  0  0  0  0  0  0  0  0  0  0  0
  -11.8520   13.6630   63.9020 C   0  0  0  0  0  0  0  0  0  0  0  0
  -11.9000   11.3350   63.3280 O   0  0  0  0  0  0  0  0  0  0  0  0
  -11.0890   14.7170   64.6740 C   0  0  0  0  0  0  0  0  0  0  0  0
  -12.7140   14.0110   63.1120 O   0  0  0  0  0  0  0  0  0  0  0  0
  -11.4150   15.8980   64.6870 O   0  0  0  0  0  0  0  0  0  0  0  0
  -13.4500   15.5460   72.9870 C   0  0  0  0  0  0  0  0  0  0  0  0
  -12.6810   15.3570   74.1790 O   0  0  0  0  0  0  0  0  0  0  0  0
  -12.8570   16.6810   73.6380 O   0  0  0  0  0  0  0  0  0  0  0  0
  1 40  1  0  0  0  0
  1  2  2  0  0  0  0
  1  6  1  0  0  0  0
  2  3  1  0  0  0  0
  3  4  2  0  0  0  0
  3 10  1  0  0  0  0
  4  5  1  0  0  0  0
  4  7  1  0  0  0  0
  5  6  2  0  0  0  0
  6 17  1  0  0  0  0
  7  8  2  0  0  0  0
  8  9  1  0  0  0  0
  8 52  1  0  0  0  0
  9 10  2  0  0  0  0
  9 15  1  0  0  0  0
 10 11  1  0  0  0  0
 11 12  2  0  0  0  0
 12 13  1  0  0  0  0
 12 14  1  0  0  0  0
 14 15  2  0  0  0  0
 15 16  1  0  0  0  0
 17 18  2  0  0  0  0
 17 23  1  0  0  0  0
 18 19  1  0  0  0  0
 19 20  1  0  0  0  0
 19 21  2  0  0  0  0
 21 22  1  0  0  0  0
 22 23  2  0  0  0  0
 22 24  1  0  0  0  0
 23 25  1  0  0  0  0
 24 28  2  0  0  0  0
 24 34  1  0  0  0  0
 25 26  2  0  0  0  0
 26 27  1  0  0  0  0
 26 28  1  0  0  0  0
 27 29  2  0  0  0  0
 27 30  1  0  0  0  0
 28 33  1  0  0  0  0
 30 31  2  0  0  0  0
 30 32  1  0  0  0  0
 32 33  1  0  0  0  0
 32 35  1  0  0  0  0
 35 36  1  0  0  0  0
 35 37  1  0  0  0  0
 35 38  1  0  0  0  0
 37 38  1  0  0  0  0
 38 39  2  0  0  0  0
 40 41  1  0  0  0  0
 41 42  1  0  0  0  0
 41 49  1  0  0  0  0
 42 43  1  0  0  0  0
 43 44  2  0  0  0  0
 43 45  1  0  0  0  0
 44 46  1  0  0  0  0
 45 47  1  0  0  0  0
 45 48  2  0  0  0  0
 47 49  1  0  0  0  0
 47 50  2  0  0  0  0
 49 51  2  0  0  0  0
 52 53  1  0  0  0  0
 52 54  1  0  0  0  0
 53 54  1  0  0  0  0
M  CHG  2  19   1   7   1
M  END