
 OpenBabel11212022323D

 54 62  0  0  1  0  0  0  0  0999 V2000
  -11.0610   15.7710   67.3630 C   0  0  0  0  0  0  0  0  0  0  0  0
  -10.6450   16.8280   68.0950 C   0  0  0  0  0  0  0  0  0  0  0  0
  -10.7930   16.8890   69.4800 O   0  0  0  0  0  0  0  0  0  0  0  0
  -11.4370   15.8470   70.1550 C   0  0  0  0  0  0  0  0  0  0  0  0
  -11.8190   14.7220   69.5180 C   0  0  0  0  0  0  0  0  0  0  0  0
  -11.6300   14.5400   68.0340 C   0  0  0  0  0  0  0  0  0  0  0  0
  -12.5240   13.5990   70.2400 C   0  0  0  0  0  0  0  0  0  0  0  0
  -11.6680   12.4700   70.2540 O   0  0  0  0  0  0  0  0  0  0  0  0
  -12.1300   11.3530   70.8880 C   0  0  0  0  0  0  0  0  0  0  0  0
  -11.6000   10.2660   70.7370 O   0  0  0  0  0  0  0  0  0  0  0  0
  -13.2230   11.5350   71.6690 O   0  0  0  0  0  0  0  0  0  0  0  0
  -13.4650   12.7760   72.3360 C   0  0  0  0  0  0  0  0  0  0  0  0
  -12.7750   13.9230   71.6690 C   0  0  0  0  0  0  0  0  0  0  0  0
  -12.3520   15.0690   72.2480 C   0  0  0  0  0  0  0  0  0  0  0  0
  -11.6680   16.0170   71.5000 O   0  0  0  0  0  0  0  0  0  0  0  0
  -15.2440   13.1480   72.3470 S   0  0  0  0  0  0  0  0  0  0  0  0
   -9.9570   18.0060   67.4990 C   0  0  0  0  0  0  0  0  0  0  0  0
  -10.6230   18.7400   66.5180 C   0  0  0  0  0  0  0  0  0  0  0  0
  -10.0420   19.7970   65.9360 N   0  0  0  0  0  0  0  0  0  0  0  0
  -10.6950   20.4520   64.9570 F   0  0  0  0  0  0  0  0  0  0  0  0
   -8.8320   20.2090   66.2600 N   0  0  0  0  0  0  0  0  0  0  0  0
   -8.1390   19.5620   67.1990 C   0  0  0  0  0  0  0  0  0  0  0  0
   -8.6570   18.4280   67.8570 C   0  0  0  0  0  0  0  0  0  0  0  0
   -6.8550   20.0080   67.5240 C   0  0  0  0  0  0  0  0  0  0  0  0
   -7.8390   17.7730   68.8050 C   0  0  0  0  0  0  0  0  0  0  0  0
   -6.5360   18.2260   69.0720 C   0  0  0  0  0  0  0  0  0  0  0  0
   -5.6500   17.4470   69.9430 C   0  0  0  0  0  0  0  0  0  0  0  0
   -6.0460   19.3670   68.4610 C   0  0  0  0  0  0  0  0  0  0  0  0
   -6.0210   16.3760   70.3970 O   0  0  0  0  0  0  0  0  0  0  0  0
   -4.2530   17.9920   70.1490 C   0  0  0  0  0  0  0  0  0  0  0  0
   -3.3350   17.2520   70.4680 O   0  0  0  0  0  0  0  0  0  0  0  0
   -4.1300   19.4750   69.8890 C   0  0  0  0  0  0  0  0  0  0  0  0
   -4.8040   19.8930   68.6900 O   0  0  0  0  0  0  0  0  0  0  0  0
   -6.3710   21.0870   66.8850 F   0  0  0  0  0  0  0  0  0  0  0  0
   -4.6060   20.2680   71.0630 C   0  0  0  0  0  0  0  0  0  0  0  0
   -6.0310   20.5530   71.1150 O   0  0  0  0  0  0  0  0  0  0  0  0
   -3.9960   19.9340   72.3070 O   0  0  0  0  0  0  0  0  0  0  0  0
   -3.7560   21.1850   71.8410 C   0  0  0  0  0  0  0  0  0  0  0  0
   -4.0430   22.2490   72.3070 O   0  0  0  0  0  0  0  0  0  0  0  0
  -10.8900   15.7700   65.9920 O   0  0  0  0  0  0  0  0  0  0  0  0
  -10.3760   14.5840   65.3210 C   0  0  0  0  0  0  0  0  0  0  0  0
   -9.9810   13.5650   66.2350 O   0  0  0  0  0  0  0  0  0  0  0  0
   -9.8180   12.3260   65.6390 C   0  0  0  0  0  0  0  0  0  0  0  0
   -8.6920   11.6130   65.7650 C   0  0  0  0  0  0  0  0  0  0  0  0
  -10.9510   11.7480   64.8690 C   0  0  0  0  0  0  0  0  0  0  0  0
   -7.5820   12.0800   66.4230 O   0  0  0  0  0  0  0  0  0  0  0  0
  -12.0070   12.7920   64.5920 C   0  0  0  0  0  0  0  0  0  0  0  0
  -11.0340   10.6020   64.4750 O   0  0  0  0  0  0  0  0  0  0  0  0
  -11.5470   14.2150   64.4200 C   0  0  0  0  0  0  0  0  0  0  0  0
  -13.1970   12.5380   64.6510 O   0  0  0  0  0  0  0  0  0  0  0  0
  -12.1350   14.9920   63.6800 O   0  0  0  0  0  0  0  0  0  0  0  0
  -12.5360   15.4190   73.6790 C   0  0  0  0  0  0  0  0  0  0  0  0
  -12.1680   16.7210   74.1580 O   0  0  0  0  0  0  0  0  0  0  0  0
  -13.5580   16.3610   74.0610 O   0  0  0  0  0  0  0  0  0  0  0  0
  1 40  1  0  0  0  0
  1  2  2  0  0  0  0
  1  6  1  0  0  0  0
  2  3  1  0  0  0  0
  2 17  1  0  0  0  0
  3  4  1  0  0  0  0
  4  5  2  0  0  0  0
  4 15  1  0  0  0  0
  5  6  1  0  0  0  0
  5  7  1  0  0  0  0
  7  8  1  0  0  0  0
  7 13  1  0  0  0  0
  8  9  1  0  0  0  0
  9 10  2  0  0  0  0
  9 11  1  0  0  0  0
 11 12  1  0  0  0  0
 12 13  1  0  0  0  0
 12 16  1  0  0  0  0
 13 14  2  0  0  0  0
 14 15  1  0  0  0  0
 14 52  1  0  0  0  0
 17 18  2  0  0  0  0
 17 23  1  0  0  0  0
 18 19  1  0  0  0  0
 19 20  1  0  0  0  0
 19 21  2  0  0  0  0
 21 22  1  0  0  0  0
 22 23  2  0  0  0  0
 22 24  1  0  0  0  0
 23 25  1  0  0  0  0
 24 28  2  0  0  0  0
 24 34  1  0  0  0  0
 25 26  2  0  0  0  0
 26 27  1  0  0  0  0
 26 28  1  0  0  0  0
 27 29  2  0  0  0  0
 27 30  1  0  0  0  0
 28 33  1  0  0  0  0
 30 31  2  0  0  0  0
 30 32  1  0  0  0  0
 32 33  1  0  0  0  0
 32 35  1  0  0  0  0
 35 36  1  0  0  0  0
 35 37  1  0  0  0  0
 35 38  1  0  0  0  0
 37 38  1  0  0  0  0
 38 39  2  0  0  0  0
 40 41  1  0  0  0  0
 41 42  1  0  0  0  0
 41 49  1  0  0  0  0
 42 43  1  0  0  0  0
 43 44  2  0  0  0  0
 43 45  1  0  0  0  0
 44 46  1  0  0  0  0
 45 47  1  0  0  0  0
 45 48  2  0  0  0  0
 47 49  1  0  0  0  0
 47 50  2  0  0  0  0
 49 51  2  0  0  0  0
 52 53  1  0  0  0  0
 52 54  1  0  0  0  0
 53 54  1  0  0  0  0
M  CHG  2  15   1  19   1
M  END