
 OpenBabel11012009573D

 52 60  0  0  1  0  0  0  0  0999 V2000
  -11.0410   15.8830   67.2630 C   0  0  0  0  0  0  0  0  0  0  0  0
  -10.6390   16.9380   68.0000 C   0  0  0  0  0  0  0  0  0  0  0  0
  -10.8240   17.0280   69.3760 O   0  0  0  0  0  0  0  0  0  0  0  0
  -11.4850   16.0060   70.0350 C   0  0  0  0  0  0  0  0  0  0  0  0
  -11.9160   14.9050   69.3990 C   0  0  0  0  0  0  0  0  0  0  0  0
  -11.7130   14.7090   67.9340 C   0  0  0  0  0  0  0  0  0  0  0  0
  -12.6810   13.8440   70.1410 C   0  0  0  0  0  0  0  0  0  0  0  0
  -12.0220   12.6040   69.9200 O   0  0  0  0  0  0  0  0  0  0  0  0
  -12.7380   11.5440   70.5370 C   0  0  0  0  0  0  0  0  0  0  0  0
  -11.9820   10.2600   70.2410 C   0  0  0  0  0  0  0  0  0  0  0  0
  -12.8080   11.7030   71.9450 O   0  0  0  0  0  0  0  0  0  0  0  0
  -13.4000   12.9240   72.3580 C   0  0  0  0  0  0  0  0  0  0  0  0
  -12.7890   14.0740   71.6240 C   0  0  0  0  0  0  0  0  0  0  0  0
  -12.3040   15.2050   72.1880 C   0  0  0  0  0  0  0  0  0  0  0  0
  -11.6960   16.1550   71.3820 N   0  0  0  0  0  0  0  0  0  0  0  0
  -14.8460   12.8720   72.2560 N   0  0  0  0  0  0  0  0  0  0  0  0
   -9.9560   18.1060   67.4250 C   0  0  0  0  0  0  0  0  0  0  0  0
  -10.7380   18.8790   66.6400 N   0  0  0  0  0  0  0  0  0  0  0  0
  -10.1690   19.9870   66.1650 C   0  0  0  0  0  0  0  0  0  0  0  0
   -8.9180   20.4010   66.4090 N   0  0  0  0  0  0  0  0  0  0  0  0
   -8.1610   19.6250   67.1920 C   0  0  0  0  0  0  0  0  0  0  0  0
   -8.6220   18.4180   67.7360 C   0  0  0  0  0  0  0  0  0  0  0  0
   -6.8720   20.0470   67.4960 C   0  0  0  0  0  0  0  0  0  0  0  0
   -7.7510   17.6370   68.5400 C   0  0  0  0  0  0  0  0  0  0  0  0
   -6.4600   18.0870   68.8210 C   0  0  0  0  0  0  0  0  0  0  0  0
   -6.0300   19.3100   68.3310 C   0  0  0  0  0  0  0  0  0  0  0  0
   -5.5500   17.2810   69.6420 C   0  0  0  0  0  0  0  0  0  0  0  0
   -4.8020   19.8470   68.5920 O   0  0  0  0  0  0  0  0  0  0  0  0
   -4.1780   19.4220   69.8110 C   0  0  0  0  0  0  0  0  0  0  0  0
   -4.2600   17.9420   70.0790 C   0  0  0  0  0  0  0  0  0  0  0  0
   -3.4290   17.3270   70.7440 O   0  0  0  0  0  0  0  0  0  0  0  0
   -5.8260   16.1490   69.9970 O   0  0  0  0  0  0  0  0  0  0  0  0
   -4.6580   20.2430   70.9770 C   0  0  0  0  0  0  0  0  0  0  0  0
   -6.0980   20.3470   71.1240 O   0  0  0  0  0  0  0  0  0  0  0  0
   -3.9220   20.0550   72.1860 O   0  0  0  0  0  0  0  0  0  0  0  0
   -3.8810   21.2950   71.6490 C   0  0  0  0  0  0  0  0  0  0  0  0
   -4.2390   22.3410   72.1340 O   0  0  0  0  0  0  0  0  0  0  0  0
  -10.7860   15.8290   65.8980 O   0  0  0  0  0  0  0  0  0  0  0  0
  -10.6020   14.5250   65.3400 C   0  0  0  0  0  0  0  0  0  0  0  0
  -10.3290   13.5570   66.3550 O   0  0  0  0  0  0  0  0  0  0  0  0
   -9.9970   12.3230   65.8320 C   0  0  0  0  0  0  0  0  0  0  0  0
   -8.9720   11.6080   66.3130 C   0  0  0  0  0  0  0  0  0  0  0  0
  -10.8030   11.7640   64.7160 C   0  0  0  0  0  0  0  0  0  0  0  0
   -8.1490   12.0620   67.3120 O   0  0  0  0  0  0  0  0  0  0  0  0
  -11.9680   12.6520   64.3300 C   0  0  0  0  0  0  0  0  0  0  0  0
  -10.5370   10.7390   64.1140 O   0  0  0  0  0  0  0  0  0  0  0  0
  -11.8390   14.1460   64.5350 C   0  0  0  0  0  0  0  0  0  0  0  0
  -12.9860   12.1670   63.8640 O   0  0  0  0  0  0  0  0  0  0  0  0
  -12.6140   14.9230   63.9970 O   0  0  0  0  0  0  0  0  0  0  0  0
  -12.3740   15.5170   73.6350 C   0  0  0  0  0  0  0  0  0  0  0  0
  -12.1260   16.8370   74.1450 O   0  0  0  0  0  0  0  0  0  0  0  0
  -13.4560   16.2870   74.1820 O   0  0  0  0  0  0  0  0  0  0  0  0
  1 38  1  0  0  0  0
  1  2  2  0  0  0  0
  1  6  1  0  0  0  0
  2  3  1  0  0  0  0
  2 17  1  0  0  0  0
  3  4  1  0  0  0  0
  4  5  2  0  0  0  0
  4 15  1  0  0  0  0
  5  6  1  0  0  0  0
  5  7  1  0  0  0  0
  7  8  1  0  0  0  0
  7 13  1  0  0  0  0
  8  9  1  0  0  0  0
  9 10  1  0  0  0  0
  9 11  1  0  0  0  0
 11 12  1  0  0  0  0
 12 13  1  0  0  0  0
 12 16  1  0  0  0  0
 13 14  2  0  0  0  0
 14 15  1  0  0  0  0
 14 50  1  0  0  0  0
 17 18  2  0  0  0  0
 17 22  1  0  0  0  0
 18 19  1  0  0  0  0
 19 20  2  0  0  0  0
 20 21  1  0  0  0  0
 21 22  2  0  0  0  0
 21 23  1  0  0  0  0
 22 24  1  0  0  0  0
 23 26  2  0  0  0  0
 24 25  2  0  0  0  0
 25 26  1  0  0  0  0
 25 27  1  0  0  0  0
 26 28  1  0  0  0  0
 27 30  1  0  0  0  0
 27 32  2  0  0  0  0
 28 29  1  0  0  0  0
 29 30  1  0  0  0  0
 29 33  1  0  0  0  0
 30 31  2  0  0  0  0
 33 34  1  0  0  0  0
 33 35  1  0  0  0  0
 33 36  1  0  0  0  0
 35 36  1  0  0  0  0
 36 37  2  0  0  0  0
 38 39  1  0  0  0  0
 39 40  1  0  0  0  0
 39 47  1  0  0  0  0
 40 41  1  0  0  0  0
 41 42  2  0  0  0  0
 41 43  1  0  0  0  0
 42 44  1  0  0  0  0
 43 45  1  0  0  0  0
 43 46  2  0  0  0  0
 45 47  1  0  0  0  0
 45 48  2  0  0  0  0
 47 49  2  0  0  0  0
 50 51  1  0  0  0  0
 50 52  1  0  0  0  0
 51 52  1  0  0  0  0
M  END
