
 OpenBabel11222002303D

 54 63  0  0  1  0  0  0  0  0999 V2000
  -11.1340   15.7450   66.9580 C   0  0  0  0  0  0  0  0  0  0  0  0
  -10.6100   16.8150   67.5980 C   0  0  0  0  0  0  0  0  0  0  0  0
  -10.7290   16.9860   68.9930 O   0  0  0  0  0  0  0  0  0  0  0  0
  -11.3390   15.9930   69.7820 C   0  0  0  0  0  0  0  0  0  0  0  0
  -11.8260   14.8750   69.2230 C   0  0  0  0  0  0  0  0  0  0  0  0
  -11.8030   14.6500   67.7510 C   0  0  0  0  0  0  0  0  0  0  0  0
  -12.4710   13.7770   70.0260 C   0  0  0  0  0  0  0  0  0  0  0  0
  -11.6920   12.5970   69.8830 O   0  0  0  0  0  0  0  0  0  0  0  0
  -12.1880   11.4780   70.4980 C   0  0  0  0  0  0  0  0  0  0  0  0
  -11.8240   10.3640   70.2190 O   0  0  0  0  0  0  0  0  0  0  0  0
  -13.1590   11.7450   71.4120 O   0  0  0  0  0  0  0  0  0  0  0  0
  -13.0300   12.9270   72.2250 C   0  0  0  0  0  0  0  0  0  0  0  0
  -12.4780   14.0710   71.4710 C   0  0  0  0  0  0  0  0  0  0  0  0
  -11.9970   15.2320   71.9830 C   0  0  0  0  0  0  0  0  0  0  0  0
  -11.4330   16.1930   71.1460 O   0  0  0  0  0  0  0  0  0  0  0  0
  -14.3440   13.3310   72.6010 O   0  0  0  0  0  0  0  0  0  0  0  0
   -9.8920   17.9360   66.9230 C   0  0  0  0  0  0  0  0  0  0  0  0
  -10.6030   18.7680   66.0610 C   0  0  0  0  0  0  0  0  0  0  0  0
  -10.0480   19.8890   65.5800 N   0  0  0  0  0  0  0  0  0  0  0  0
  -10.7460   20.6530   64.7170 F   0  0  0  0  0  0  0  0  0  0  0  0
   -8.8550   20.3090   65.9540 N   0  0  0  0  0  0  0  0  0  0  0  0
   -8.0910   19.5280   66.7220 C   0  0  0  0  0  0  0  0  0  0  0  0
   -8.5380   18.2700   67.1710 C   0  0  0  0  0  0  0  0  0  0  0  0
   -6.8260   19.9710   67.0980 C   0  0  0  0  0  0  0  0  0  0  0  0
   -7.5940   17.4230   67.8070 C   0  0  0  0  0  0  0  0  0  0  0  0
   -6.2640   17.8220   68.0550 C   0  0  0  0  0  0  0  0  0  0  0  0
   -5.1270   16.8910   68.5630 C   0  0  0  0  0  0  0  0  0  0  0  0
   -5.9420   19.1570   67.7970 C   0  0  0  0  0  0  0  0  0  0  0  0
   -5.4180   16.2930   69.8480 N   0  0  0  0  0  0  0  0  0  0  0  0
   -3.9800   17.5600   69.2580 C   0  0  0  0  0  0  0  0  0  0  0  0
   -4.3900   16.7650   70.4110 N   0  0  0  0  0  0  0  0  0  0  0  0
   -4.1430   19.0810   69.3910 C   0  0  0  0  0  0  0  0  0  0  0  0
   -4.7300   19.6750   68.1870 O   0  0  0  0  0  0  0  0  0  0  0  0
   -6.4510   21.2190   66.7750 F   0  0  0  0  0  0  0  0  0  0  0  0
   -4.8660   19.5430   70.6390 C   0  0  0  0  0  0  0  0  0  0  0  0
   -6.3020   19.3750   70.6800 O   0  0  0  0  0  0  0  0  0  0  0  0
   -4.1510   19.2380   71.8440 O   0  0  0  0  0  0  0  0  0  0  0  0
   -4.3380   20.6250   71.5730 C   0  0  0  0  0  0  0  0  0  0  0  0
   -5.3160   21.2290   72.4430 O   0  0  0  0  0  0  0  0  0  0  0  0
  -11.0380   15.5940   65.5740 O   0  0  0  0  0  0  0  0  0  0  0  0
  -10.4980   14.3380   65.0400 C   0  0  0  0  0  0  0  0  0  0  0  0
   -9.9090   13.5540   66.0570 O   0  0  0  0  0  0  0  0  0  0  0  0
   -9.6700   12.2180   65.8140 C   0  0  0  0  0  0  0  0  0  0  0  0
   -8.7550   11.5630   66.5390 C   0  0  0  0  0  0  0  0  0  0  0  0
  -10.4630   11.4330   64.8330 C   0  0  0  0  0  0  0  0  0  0  0  0
   -7.9940   12.1890   67.4940 O   0  0  0  0  0  0  0  0  0  0  0  0
  -11.5740   12.2030   64.1640 C   0  0  0  0  0  0  0  0  0  0  0  0
  -10.2860   10.2490   64.6010 O   0  0  0  0  0  0  0  0  0  0  0  0
  -11.5830   13.7090   64.1740 C   0  0  0  0  0  0  0  0  0  0  0  0
  -12.5410   11.6160   63.7030 O   0  0  0  0  0  0  0  0  0  0  0  0
  -12.4540   14.3530   63.5970 O   0  0  0  0  0  0  0  0  0  0  0  0
  -12.0380   15.5840   73.4260 C   0  0  0  0  0  0  0  0  0  0  0  0
  -12.0080   16.9610   73.8340 O   0  0  0  0  0  0  0  0  0  0  0  0
  -13.2150   16.1920   73.9850 O   0  0  0  0  0  0  0  0  0  0  0  0
  1 40  1  0  0  0  0
  1  2  2  0  0  0  0
  1  6  1  0  0  0  0
  2  3  1  0  0  0  0
  2 17  1  0  0  0  0
  3  4  1  0  0  0  0
  4  5  2  0  0  0  0
  4 15  1  0  0  0  0
  5  6  1  0  0  0  0
  5  7  1  0  0  0  0
  7  8  1  0  0  0  0
  7 13  1  0  0  0  0
  8  9  1  0  0  0  0
  9 10  2  0  0  0  0
  9 11  1  0  0  0  0
 11 12  1  0  0  0  0
 12 13  1  0  0  0  0
 12 16  1  0  0  0  0
 13 14  2  0  0  0  0
 14 15  1  0  0  0  0
 14 52  1  0  0  0  0
 17 18  2  0  0  0  0
 17 23  1  0  0  0  0
 18 19  1  0  0  0  0
 19 20  1  0  0  0  0
 19 21  2  0  0  0  0
 21 22  1  0  0  0  0
 22 23  2  0  0  0  0
 22 24  1  0  0  0  0
 23 25  1  0  0  0  0
 24 28  2  0  0  0  0
 24 34  1  0  0  0  0
 25 26  2  0  0  0  0
 26 27  1  0  0  0  0
 26 28  1  0  0  0  0
 27 29  1  0  0  0  0
 27 30  1  0  0  0  0
 28 33  1  0  0  0  0
 29 31  2  0  0  0  0
 30 31  1  0  0  0  0
 30 32  1  0  0  0  0
 32 33  1  0  0  0  0
 32 35  1  0  0  0  0
 35 36  1  0  0  0  0
 35 37  1  0  0  0  0
 35 38  1  0  0  0  0
 37 38  1  0  0  0  0
 38 39  1  0  0  0  0
 40 41  1  0  0  0  0
 41 42  1  0  0  0  0
 41 49  1  0  0  0  0
 42 43  1  0  0  0  0
 43 44  2  0  0  0  0
 43 45  1  0  0  0  0
 44 46  1  0  0  0  0
 45 47  1  0  0  0  0
 45 48  2  0  0  0  0
 47 49  1  0  0  0  0
 47 50  2  0  0  0  0
 49 51  2  0  0  0  0
 52 53  1  0  0  0  0
 52 54  1  0  0  0  0
 53 54  1  0  0  0  0
M  CHG  2  15   1  19   1
M  END