
 OpenBabel11212021173D

 53 61  0  0  1  0  0  0  0  0999 V2000
  -11.0540   15.7350   66.9070 C   0  0  0  0  0  0  0  0  0  0  0  0
  -10.8210   16.8420   67.6380 C   0  0  0  0  0  0  0  0  0  0  0  0
  -11.2170   16.9860   68.9580 O   0  0  0  0  0  0  0  0  0  0  0  0
  -11.7490   15.8890   69.6170 C   0  0  0  0  0  0  0  0  0  0  0  0
  -12.0020   14.7260   68.9920 C   0  0  0  0  0  0  0  0  0  0  0  0
  -11.7730   14.5550   67.5210 C   0  0  0  0  0  0  0  0  0  0  0  0
  -12.5340   13.5420   69.7680 C   0  0  0  0  0  0  0  0  0  0  0  0
  -11.6180   12.4610   69.5780 O   0  0  0  0  0  0  0  0  0  0  0  0
  -11.8930   11.3170   70.2330 C   0  0  0  0  0  0  0  0  0  0  0  0
  -11.3380   10.2230   69.8740 N   0  0  0  0  0  0  0  0  0  0  0  0
  -12.7840   11.3510   71.2390 O   0  0  0  0  0  0  0  0  0  0  0  0
  -13.0340   12.5540   71.9840 C   0  0  0  0  0  0  0  0  0  0  0  0
  -12.6480   13.7810   71.2380 C   0  0  0  0  0  0  0  0  0  0  0  0
  -12.3830   14.9870   71.7890 C   0  0  0  0  0  0  0  0  0  0  0  0
  -11.9840   16.0240   70.9600 N   0  0  0  0  0  0  0  0  0  0  0  0
  -10.0250   17.9660   67.1310 C   0  0  0  0  0  0  0  0  0  0  0  0
  -10.6540   18.8280   66.2450 C   0  0  0  0  0  0  0  0  0  0  0  0
  -10.0000   19.8810   65.7540 N   0  0  0  0  0  0  0  0  0  0  0  0
  -10.6350   20.7020   64.8960 F   0  0  0  0  0  0  0  0  0  0  0  0
   -8.7510   20.1520   66.0740 N   0  0  0  0  0  0  0  0  0  0  0  0
   -8.0850   19.3700   66.9380 C   0  0  0  0  0  0  0  0  0  0  0  0
   -8.6970   18.2350   67.5070 C   0  0  0  0  0  0  0  0  0  0  0  0
   -6.7620   19.6690   67.3090 C   0  0  0  0  0  0  0  0  0  0  0  0
   -7.9620   17.4360   68.4160 C   0  0  0  0  0  0  0  0  0  0  0  0
   -6.6540   17.7720   68.7780 C   0  0  0  0  0  0  0  0  0  0  0  0
   -5.9130   16.9350   69.7330 C   0  0  0  0  0  0  0  0  0  0  0  0
   -6.0500   18.8970   68.2400 C   0  0  0  0  0  0  0  0  0  0  0  0
   -6.3610   15.8650   70.1090 O   0  0  0  0  0  0  0  0  0  0  0  0
   -4.5800   17.4590   70.2240 C   0  0  0  0  0  0  0  0  0  0  0  0
   -3.8380   16.7610   70.8980 O   0  0  0  0  0  0  0  0  0  0  0  0
   -4.3080   18.9010   69.8680 C   0  0  0  0  0  0  0  0  0  0  0  0
   -4.7770   19.2810   68.5680 O   0  0  0  0  0  0  0  0  0  0  0  0
   -5.9140   21.2040   66.5390 Br  0  0  0  0  0  0  0  0  0  0  0  0
   -4.8530   19.8270   70.9090 C   0  0  0  0  0  0  0  0  0  0  0  0
   -6.2500   20.2080   70.7790 O   0  0  0  0  0  0  0  0  0  0  0  0
   -4.3890   19.6030   72.2340 O   0  0  0  0  0  0  0  0  0  0  0  0
   -4.0220   20.7660   71.6630 C   0  0  0  0  0  0  0  0  0  0  0  0
   -4.2830   21.9080   71.9860 O   0  0  0  0  0  0  0  0  0  0  0  0
  -10.5310   15.6240   65.6260 O   0  0  0  0  0  0  0  0  0  0  0  0
  -10.4110   14.2940   65.0970 C   0  0  0  0  0  0  0  0  0  0  0  0
  -10.2200   13.3420   66.1370 O   0  0  0  0  0  0  0  0  0  0  0  0
   -9.9750   12.0660   65.6550 C   0  0  0  0  0  0  0  0  0  0  0  0
   -9.0960   11.2650   66.2650 C   0  0  0  0  0  0  0  0  0  0  0  0
  -10.6990   11.5590   64.4530 C   0  0  0  0  0  0  0  0  0  0  0  0
   -8.3730   11.6690   67.3580 O   0  0  0  0  0  0  0  0  0  0  0  0
  -11.7620   12.5150   63.9410 C   0  0  0  0  0  0  0  0  0  0  0  0
  -10.4430   10.5120   63.8870 O   0  0  0  0  0  0  0  0  0  0  0  0
  -11.7010   13.9640   64.3700 C   0  0  0  0  0  0  0  0  0  0  0  0
  -12.6490   12.1300   63.1990 O   0  0  0  0  0  0  0  0  0  0  0  0
  -12.6090   14.7500   64.1360 O   0  0  0  0  0  0  0  0  0  0  0  0
  -12.4680   15.2930   73.2360 C   0  0  0  0  0  0  0  0  0  0  0  0
  -12.0710   16.5710   73.7580 O   0  0  0  0  0  0  0  0  0  0  0  0
  -13.4620   16.1910   73.7630 O   0  0  0  0  0  0  0  0  0  0  0  0
  1 39  1  0  0  0  0
  1  2  2  0  0  0  0
  1  6  1  0  0  0  0
  2  3  1  0  0  0  0
  2 16  1  0  0  0  0
  3  4  1  0  0  0  0
  4  5  2  0  0  0  0
  4 15  1  0  0  0  0
  5  6  1  0  0  0  0
  5  7  1  0  0  0  0
  7  8  1  0  0  0  0
  7 13  1  0  0  0  0
  8  9  1  0  0  0  0
  9 10  2  0  0  0  0
  9 11  1  0  0  0  0
 11 12  1  0  0  0  0
 12 13  1  0  0  0  0
 13 14  2  0  0  0  0
 14 15  1  0  0  0  0
 14 51  1  0  0  0  0
 16 17  2  0  0  0  0
 16 22  1  0  0  0  0
 17 18  1  0  0  0  0
 18 19  1  0  0  0  0
 18 20  2  0  0  0  0
 20 21  1  0  0  0  0
 21 22  2  0  0  0  0
 21 23  1  0  0  0  0
 22 24  1  0  0  0  0
 23 27  2  0  0  0  0
 23 33  1  0  0  0  0
 24 25  2  0  0  0  0
 25 26  1  0  0  0  0
 25 27  1  0  0  0  0
 26 28  2  0  0  0  0
 26 29  1  0  0  0  0
 27 32  1  0  0  0  0
 29 30  2  0  0  0  0
 29 31  1  0  0  0  0
 31 32  1  0  0  0  0
 31 34  1  0  0  0  0
 34 35  1  0  0  0  0
 34 36  1  0  0  0  0
 34 37  1  0  0  0  0
 36 37  1  0  0  0  0
 37 38  2  0  0  0  0
 39 40  1  0  0  0  0
 40 41  1  0  0  0  0
 40 48  1  0  0  0  0
 41 42  1  0  0  0  0
 42 43  2  0  0  0  0
 42 44  1  0  0  0  0
 43 45  1  0  0  0  0
 44 46  1  0  0  0  0
 44 47  2  0  0  0  0
 46 48  1  0  0  0  0
 46 49  2  0  0  0  0
 48 50  2  0  0  0  0
 51 52  1  0  0  0  0
 51 53  1  0  0  0  0
 52 53  1  0  0  0  0
M  CHG  1  18   1
M  END