
 OpenBabel11212021263D

 53 61  0  0  1  0  0  0  0  0999 V2000
  -11.0370   15.6950   67.1410 C   0  0  0  0  0  0  0  0  0  0  0  0
  -10.6820   16.7930   67.8570 C   0  0  0  0  0  0  0  0  0  0  0  0
  -11.1690   17.0010   69.1640 O   0  0  0  0  0  0  0  0  0  0  0  0
  -11.8370   15.9790   69.8460 C   0  0  0  0  0  0  0  0  0  0  0  0
  -12.1300   14.8230   69.2310 C   0  0  0  0  0  0  0  0  0  0  0  0
  -11.8490   14.6000   67.7850 C   0  0  0  0  0  0  0  0  0  0  0  0
  -12.7480   13.6600   69.9410 C   0  0  0  0  0  0  0  0  0  0  0  0
  -11.7840   12.6250   69.9200 O   0  0  0  0  0  0  0  0  0  0  0  0
  -12.2630   11.4700   70.5890 C   0  0  0  0  0  0  0  0  0  0  0  0
  -11.2620   10.4910   70.5250 O   0  0  0  0  0  0  0  0  0  0  0  0
  -12.5270   11.7580   71.9500 O   0  0  0  0  0  0  0  0  0  0  0  0
  -13.5370   12.7510   72.0850 C   0  0  0  0  0  0  0  0  0  0  0  0
  -13.0490   13.9780   71.3710 C   0  0  0  0  0  0  0  0  0  0  0  0
  -12.7890   15.1880   71.9160 C   0  0  0  0  0  0  0  0  0  0  0  0
  -12.1770   16.1850   71.1660 O   0  0  0  0  0  0  0  0  0  0  0  0
   -9.7960   17.8940   67.3340 C   0  0  0  0  0  0  0  0  0  0  0  0
  -10.3920   18.7490   66.4740 N   0  0  0  0  0  0  0  0  0  0  0  0
   -9.7000   19.7560   65.9600 N   0  0  0  0  0  0  0  0  0  0  0  0
  -10.3050   20.5540   65.0570 F   0  0  0  0  0  0  0  0  0  0  0  0
   -8.4390   20.0190   66.3150 C   0  0  0  0  0  0  0  0  0  0  0  0
   -7.7690   19.1970   67.2160 C   0  0  0  0  0  0  0  0  0  0  0  0
   -8.4370   18.0660   67.7170 C   0  0  0  0  0  0  0  0  0  0  0  0
   -6.4460   19.4870   67.6170 C   0  0  0  0  0  0  0  0  0  0  0  0
   -7.6700   17.2040   68.5420 C   0  0  0  0  0  0  0  0  0  0  0  0
   -6.3550   17.5140   68.9360 C   0  0  0  0  0  0  0  0  0  0  0  0
   -5.6410   16.6000   69.8330 C   0  0  0  0  0  0  0  0  0  0  0  0
   -5.7410   18.6750   68.5060 C   0  0  0  0  0  0  0  0  0  0  0  0
   -6.2050   15.6090   70.2700 O   0  0  0  0  0  0  0  0  0  0  0  0
   -4.2250   16.9810   70.2030 C   0  0  0  0  0  0  0  0  0  0  0  0
   -3.4470   16.1440   70.6300 O   0  0  0  0  0  0  0  0  0  0  0  0
   -3.9330   18.4610   70.0650 C   0  0  0  0  0  0  0  0  0  0  0  0
   -4.4900   19.0690   68.8840 O   0  0  0  0  0  0  0  0  0  0  0  0
   -5.8660   20.5990   67.1430 F   0  0  0  0  0  0  0  0  0  0  0  0
   -4.3940   19.1910   71.2860 C   0  0  0  0  0  0  0  0  0  0  0  0
   -5.4260   18.5430   72.0820 O   0  0  0  0  0  0  0  0  0  0  0  0
   -3.3700   19.8490   72.0210 O   0  0  0  0  0  0  0  0  0  0  0  0
   -4.3100   20.6520   71.4650 C   0  0  0  0  0  0  0  0  0  0  0  0
   -5.1230   21.3600   71.9920 O   0  0  0  0  0  0  0  0  0  0  0  0
  -10.6360   15.5150   65.8210 O   0  0  0  0  0  0  0  0  0  0  0  0
  -10.3510   14.1750   65.3560 C   0  0  0  0  0  0  0  0  0  0  0  0
  -10.0250   13.2920   66.4310 O   0  0  0  0  0  0  0  0  0  0  0  0
   -9.6130   12.0350   66.0200 C   0  0  0  0  0  0  0  0  0  0  0  0
   -8.6260   11.3850   66.6540 C   0  0  0  0  0  0  0  0  0  0  0  0
  -10.2690   11.3510   64.8660 C   0  0  0  0  0  0  0  0  0  0  0  0
   -7.9220   11.9210   67.7060 O   0  0  0  0  0  0  0  0  0  0  0  0
  -11.3020   12.2050   64.1460 C   0  0  0  0  0  0  0  0  0  0  0  0
   -9.9800   10.2290   64.4890 O   0  0  0  0  0  0  0  0  0  0  0  0
  -11.5620   13.6070   64.6480 C   0  0  0  0  0  0  0  0  0  0  0  0
  -11.8530   11.8150   63.1320 O   0  0  0  0  0  0  0  0  0  0  0  0
  -12.6250   14.1840   64.4790 O   0  0  0  0  0  0  0  0  0  0  0  0
  -13.0490   15.5240   73.3350 C   0  0  0  0  0  0  0  0  0  0  0  0
  -12.1730   15.0760   74.3740 O   0  0  0  0  0  0  0  0  0  0  0  0
  -12.2130   16.4720   74.0210 O   0  0  0  0  0  0  0  0  0  0  0  0
  1 39  1  0  0  0  0
  1  2  2  0  0  0  0
  1  6  1  0  0  0  0
  2  3  1  0  0  0  0
  2 16  1  0  0  0  0
  3  4  1  0  0  0  0
  4  5  2  0  0  0  0
  4 15  1  0  0  0  0
  5  6  1  0  0  0  0
  5  7  1  0  0  0  0
  7  8  1  0  0  0  0
  7 13  1  0  0  0  0
  8  9  1  0  0  0  0
  9 10  1  0  0  0  0
  9 11  1  0  0  0  0
 11 12  1  0  0  0  0
 12 13  1  0  0  0  0
 13 14  2  0  0  0  0
 14 15  1  0  0  0  0
 14 51  1  0  0  0  0
 16 17  2  0  0  0  0
 16 22  1  0  0  0  0
 17 18  1  0  0  0  0
 18 19  1  0  0  0  0
 18 20  2  0  0  0  0
 20 21  1  0  0  0  0
 21 22  2  0  0  0  0
 21 23  1  0  0  0  0
 22 24  1  0  0  0  0
 23 27  2  0  0  0  0
 23 33  1  0  0  0  0
 24 25  2  0  0  0  0
 25 26  1  0  0  0  0
 25 27  1  0  0  0  0
 26 28  2  0  0  0  0
 26 29  1  0  0  0  0
 27 32  1  0  0  0  0
 29 30  2  0  0  0  0
 29 31  1  0  0  0  0
 31 32  1  0  0  0  0
 31 34  1  0  0  0  0
 34 35  1  0  0  0  0
 34 36  1  0  0  0  0
 34 37  1  0  0  0  0
 36 37  1  0  0  0  0
 37 38  2  0  0  0  0
 39 40  1  0  0  0  0
 40 41  1  0  0  0  0
 40 48  1  0  0  0  0
 41 42  1  0  0  0  0
 42 43  2  0  0  0  0
 42 44  1  0  0  0  0
 43 45  1  0  0  0  0
 44 46  1  0  0  0  0
 44 47  2  0  0  0  0
 46 48  1  0  0  0  0
 46 49  2  0  0  0  0
 48 50  2  0  0  0  0
 51 52  1  0  0  0  0
 51 53  1  0  0  0  0
 52 53  1  0  0  0  0
M  CHG  2  15   1  18   1
M  END