
 OpenBabel11212001353D

 52 60  0  0  1  0  0  0  0  0999 V2000
  -11.0840   15.6460   67.2750 C   0  0  0  0  0  0  0  0  0  0  0  0
  -10.6400   16.7090   67.9810 C   0  0  0  0  0  0  0  0  0  0  0  0
  -10.7860   16.8290   69.3560 O   0  0  0  0  0  0  0  0  0  0  0  0
  -11.4460   15.8350   70.0540 C   0  0  0  0  0  0  0  0  0  0  0  0
  -11.9140   14.7230   69.4600 C   0  0  0  0  0  0  0  0  0  0  0  0
  -11.7600   14.4960   67.9890 C   0  0  0  0  0  0  0  0  0  0  0  0
  -12.6580   13.6840   70.2660 C   0  0  0  0  0  0  0  0  0  0  0  0
  -11.9410   12.4570   70.1670 O   0  0  0  0  0  0  0  0  0  0  0  0
  -12.3420   11.3990   70.9160 C   0  0  0  0  0  0  0  0  0  0  0  0
  -11.9210   10.2700   70.7060 O   0  0  0  0  0  0  0  0  0  0  0  0
  -13.2610   11.6420   71.8820 O   0  0  0  0  0  0  0  0  0  0  0  0
  -13.4860   12.9350   72.4340 C   0  0  0  0  0  0  0  0  0  0  0  0
  -12.7750   14.0090   71.7130 C   0  0  0  0  0  0  0  0  0  0  0  0
  -12.2580   15.1390   72.2420 C   0  0  0  0  0  0  0  0  0  0  0  0
  -11.6200   16.0330   71.3980 N   0  0  0  0  0  0  0  0  0  0  0  0
  -14.8740   13.2210   72.3390 O   0  0  0  0  0  0  0  0  0  0  0  0
   -9.9660   17.8690   67.3580 C   0  0  0  0  0  0  0  0  0  0  0  0
  -10.7790   18.5450   66.5180 N   0  0  0  0  0  0  0  0  0  0  0  0
  -10.2660   19.9670   65.8810 P   0  0  0  0  0  0  0  0  0  0  0  0
   -8.6540   20.0730   66.1650 N   0  0  0  0  0  0  0  0  0  0  0  0
   -8.0430   19.2680   67.0200 C   0  0  0  0  0  0  0  0  0  0  0  0
   -8.6110   18.1460   67.6560 C   0  0  0  0  0  0  0  0  0  0  0  0
   -6.7220   19.5950   67.3020 C   0  0  0  0  0  0  0  0  0  0  0  0
   -7.8040   17.3660   68.5230 C   0  0  0  0  0  0  0  0  0  0  0  0
   -6.4880   17.7390   68.8010 C   0  0  0  0  0  0  0  0  0  0  0  0
   -5.9550   18.8740   68.2170 C   0  0  0  0  0  0  0  0  0  0  0  0
   -5.6610   16.9430   69.7150 C   0  0  0  0  0  0  0  0  0  0  0  0
   -4.7040   19.3560   68.4840 O   0  0  0  0  0  0  0  0  0  0  0  0
   -4.1870   19.0180   69.7770 C   0  0  0  0  0  0  0  0  0  0  0  0
   -4.3670   17.5720   70.1800 C   0  0  0  0  0  0  0  0  0  0  0  0
   -3.5810   16.9520   70.8850 O   0  0  0  0  0  0  0  0  0  0  0  0
   -5.9920   15.8280   70.0830 O   0  0  0  0  0  0  0  0  0  0  0  0
   -4.7300   19.9400   70.8290 C   0  0  0  0  0  0  0  0  0  0  0  0
   -6.1380   20.2770   70.7420 O   0  0  0  0  0  0  0  0  0  0  0  0
   -4.2380   19.6880   72.1460 O   0  0  0  0  0  0  0  0  0  0  0  0
   -3.9050   20.8660   71.5970 C   0  0  0  0  0  0  0  0  0  0  0  0
   -4.1500   21.9960   71.9750 O   0  0  0  0  0  0  0  0  0  0  0  0
  -10.8840   15.5770   65.9010 O   0  0  0  0  0  0  0  0  0  0  0  0
  -10.5650   14.2970   65.3470 C   0  0  0  0  0  0  0  0  0  0  0  0
  -10.0090   13.4390   66.3410 O   0  0  0  0  0  0  0  0  0  0  0  0
   -9.6660   12.1690   65.9200 C   0  0  0  0  0  0  0  0  0  0  0  0
   -8.6570   11.5070   66.4980 C   0  0  0  0  0  0  0  0  0  0  0  0
  -10.4350   11.4620   64.8570 C   0  0  0  0  0  0  0  0  0  0  0  0
   -7.8780   12.0570   67.4830 O   0  0  0  0  0  0  0  0  0  0  0  0
  -11.5590   12.2750   64.2540 C   0  0  0  0  0  0  0  0  0  0  0  0
  -10.1890   10.3290   64.4760 O   0  0  0  0  0  0  0  0  0  0  0  0
  -11.8230   13.6620   64.7790 C   0  0  0  0  0  0  0  0  0  0  0  0
  -12.2140   11.8370   63.3220 O   0  0  0  0  0  0  0  0  0  0  0  0
  -12.9380   14.1540   64.7140 O   0  0  0  0  0  0  0  0  0  0  0  0
  -12.3430   15.5230   73.6660 C   0  0  0  0  0  0  0  0  0  0  0  0
  -12.1490   16.8760   74.1080 O   0  0  0  0  0  0  0  0  0  0  0  0
  -13.4540   16.2740   74.1830 O   0  0  0  0  0  0  0  0  0  0  0  0
  1 38  1  0  0  0  0
  1  2  2  0  0  0  0
  1  6  1  0  0  0  0
  2  3  1  0  0  0  0
  2 17  1  0  0  0  0
  3  4  1  0  0  0  0
  4  5  2  0  0  0  0
  4 15  1  0  0  0  0
  5  6  1  0  0  0  0
  5  7  1  0  0  0  0
  7  8  1  0  0  0  0
  7 13  1  0  0  0  0
  8  9  1  0  0  0  0
  9 10  2  0  0  0  0
  9 11  1  0  0  0  0
 11 12  1  0  0  0  0
 12 13  1  0  0  0  0
 12 16  1  0  0  0  0
 13 14  2  0  0  0  0
 14 15  1  0  0  0  0
 14 50  1  0  0  0  0
 17 18  2  0  0  0  0
 17 22  1  0  0  0  0
 18 19  1  0  0  0  0
 19 20  2  0  0  0  0
 20 21  1  0  0  0  0
 21 22  2  0  0  0  0
 21 23  1  0  0  0  0
 22 24  1  0  0  0  0
 23 26  2  0  0  0  0
 24 25  2  0  0  0  0
 25 26  1  0  0  0  0
 25 27  1  0  0  0  0
 26 28  1  0  0  0  0
 27 30  1  0  0  0  0
 27 32  2  0  0  0  0
 28 29  1  0  0  0  0
 29 30  1  0  0  0  0
 29 33  1  0  0  0  0
 30 31  2  0  0  0  0
 33 34  1  0  0  0  0
 33 35  1  0  0  0  0
 33 36  1  0  0  0  0
 35 36  1  0  0  0  0
 36 37  2  0  0  0  0
 38 39  1  0  0  0  0
 39 40  1  0  0  0  0
 39 47  1  0  0  0  0
 40 41  1  0  0  0  0
 41 42  2  0  0  0  0
 41 43  1  0  0  0  0
 42 44  1  0  0  0  0
 43 45  1  0  0  0  0
 43 46  2  0  0  0  0
 45 47  1  0  0  0  0
 45 48  2  0  0  0  0
 47 49  2  0  0  0  0
 50 51  1  0  0  0  0
 50 52  1  0  0  0  0
 51 52  1  0  0  0  0
M  END
