
 OpenBabel11262000223D

 54 62  0  0  1  0  0  0  0  0999 V2000
  -10.6300   15.6860   67.3250 C   0  0  0  0  0  0  0  0  0  0  0  0
  -10.4750   16.8550   67.9840 C   0  0  0  0  0  0  0  0  0  0  0  0
  -10.8860   17.0380   69.3190 O   0  0  0  0  0  0  0  0  0  0  0  0
  -11.5460   15.9860   70.0010 C   0  0  0  0  0  0  0  0  0  0  0  0
  -11.7560   14.8010   69.3930 C   0  0  0  0  0  0  0  0  0  0  0  0
  -11.2910   14.5090   68.0000 C   0  0  0  0  0  0  0  0  0  0  0  0
  -12.5370   13.6810   70.0430 C   0  0  0  0  0  0  0  0  0  0  0  0
  -11.7120   12.5470   70.1610 O   0  0  0  0  0  0  0  0  0  0  0  0
  -12.3070   11.4480   70.7150 C   0  0  0  0  0  0  0  0  0  0  0  0
  -11.8770   10.3290   70.4880 O   0  0  0  0  0  0  0  0  0  0  0  0
  -13.3780   11.6750   71.5220 O   0  0  0  0  0  0  0  0  0  0  0  0
  -13.6740   12.8990   71.9930 C   0  0  0  0  0  0  0  0  0  0  0  0
  -14.5530   13.1130   72.8130 O   0  0  0  0  0  0  0  0  0  0  0  0
  -12.9430   14.0230   71.4080 C   0  0  0  0  0  0  0  0  0  0  0  0
  -12.6940   15.2100   71.9990 C   0  0  0  0  0  0  0  0  0  0  0  0
  -11.9920   16.1950   71.2980 O   0  0  0  0  0  0  0  0  0  0  0  0
   -9.8380   18.0260   67.3050 C   0  0  0  0  0  0  0  0  0  0  0  0
  -10.5910   18.7730   66.3870 C   0  0  0  0  0  0  0  0  0  0  0  0
  -10.0800   19.8850   65.8510 N   0  0  0  0  0  0  0  0  0  0  0  0
  -10.8040   20.5790   64.9460 F   0  0  0  0  0  0  0  0  0  0  0  0
   -8.8870   20.3390   66.1790 N   0  0  0  0  0  0  0  0  0  0  0  0
   -8.1380   19.6500   67.0620 C   0  0  0  0  0  0  0  0  0  0  0  0
   -8.5720   18.4590   67.6280 N   0  0  0  0  0  0  0  0  0  0  0  0
   -6.8700   20.1350   67.4150 C   0  0  0  0  0  0  0  0  0  0  0  0
   -7.7350   17.7790   68.4650 C   0  0  0  0  0  0  0  0  0  0  0  0
   -6.4680   18.2610   68.7860 C   0  0  0  0  0  0  0  0  0  0  0  0
   -5.6030   17.4670   69.6430 C   0  0  0  0  0  0  0  0  0  0  0  0
   -6.0280   19.4630   68.2920 C   0  0  0  0  0  0  0  0  0  0  0  0
   -5.9700   16.3460   69.9510 O   0  0  0  0  0  0  0  0  0  0  0  0
   -4.2680   18.0630   70.0250 C   0  0  0  0  0  0  0  0  0  0  0  0
   -3.3800   17.3380   70.4370 O   0  0  0  0  0  0  0  0  0  0  0  0
   -4.1740   19.5650   69.8340 C   0  0  0  0  0  0  0  0  0  0  0  0
   -4.8390   20.0350   68.6330 O   0  0  0  0  0  0  0  0  0  0  0  0
   -6.4640   21.2980   66.8840 F   0  0  0  0  0  0  0  0  0  0  0  0
   -4.6090   20.3030   71.0770 C   0  0  0  0  0  0  0  0  0  0  0  0
   -5.9960   20.6590   71.1590 O   0  0  0  0  0  0  0  0  0  0  0  0
   -3.9990   19.9020   72.3050 O   0  0  0  0  0  0  0  0  0  0  0  0
   -3.6990   21.1410   71.8640 C   0  0  0  0  0  0  0  0  0  0  0  0
   -2.6310   21.6350   71.5720 O   0  0  0  0  0  0  0  0  0  0  0  0
  -10.1550   15.5420   66.0200 O   0  0  0  0  0  0  0  0  0  0  0  0
  -10.1160   14.2000   65.4230 C   0  0  0  0  0  0  0  0  0  0  0  0
   -9.8870   13.2010   66.3920 O   0  0  0  0  0  0  0  0  0  0  0  0
  -10.0140   11.9010   65.9380 C   0  0  0  0  0  0  0  0  0  0  0  0
   -9.6990   10.8730   66.7330 C   0  0  0  0  0  0  0  0  0  0  0  0
  -10.6420   11.6130   64.6140 C   0  0  0  0  0  0  0  0  0  0  0  0
   -9.2500   11.0580   68.0170 O   0  0  0  0  0  0  0  0  0  0  0  0
  -11.7150   12.5850   64.1960 C   0  0  0  0  0  0  0  0  0  0  0  0
  -10.3350   10.6300   63.9510 O   0  0  0  0  0  0  0  0  0  0  0  0
  -11.3880   14.0080   64.5860 C   0  0  0  0  0  0  0  0  0  0  0  0
  -12.9170   12.2440   64.7520 F   0  0  0  0  0  0  0  0  0  0  0  0
  -12.1220   14.9720   64.3220 O   0  0  0  0  0  0  0  0  0  0  0  0
  -13.0970   15.6130   73.3750 C   0  0  0  0  0  0  0  0  0  0  0  0
  -12.2480   15.2680   74.4870 O   0  0  0  0  0  0  0  0  0  0  0  0
  -12.3510   16.6370   74.0590 O   0  0  0  0  0  0  0  0  0  0  0  0
  1 40  1  0  0  0  0
  1  2  2  0  0  0  0
  1  6  1  0  0  0  0
  2  3  1  0  0  0  0
  2 17  1  0  0  0  0
  3  4  1  0  0  0  0
  4  5  2  0  0  0  0
  4 16  1  0  0  0  0
  5  6  1  0  0  0  0
  5  7  1  0  0  0  0
  7  8  1  0  0  0  0
  7 14  1  0  0  0  0
  8  9  1  0  0  0  0
  9 10  2  0  0  0  0
  9 11  1  0  0  0  0
 11 12  1  0  0  0  0
 12 13  2  0  0  0  0
 12 14  1  0  0  0  0
 14 15  2  0  0  0  0
 15 16  1  0  0  0  0
 15 52  1  0  0  0  0
 17 18  2  0  0  0  0
 17 23  1  0  0  0  0
 18 19  1  0  0  0  0
 19 20  1  0  0  0  0
 19 21  2  0  0  0  0
 21 22  1  0  0  0  0
 22 23  2  0  0  0  0
 22 24  1  0  0  0  0
 23 25  1  0  0  0  0
 24 28  2  0  0  0  0
 24 34  1  0  0  0  0
 25 26  2  0  0  0  0
 26 27  1  0  0  0  0
 26 28  1  0  0  0  0
 27 29  2  0  0  0  0
 27 30  1  0  0  0  0
 28 33  1  0  0  0  0
 30 31  2  0  0  0  0
 30 32  1  0  0  0  0
 32 33  1  0  0  0  0
 32 35  1  0  0  0  0
 35 36  1  0  0  0  0
 35 37  1  0  0  0  0
 35 38  1  0  0  0  0
 37 38  1  0  0  0  0
 38 39  2  0  0  0  0
 40 41  1  0  0  0  0
 41 42  1  0  0  0  0
 41 49  1  0  0  0  0
 42 43  1  0  0  0  0
 43 44  2  0  0  0  0
 43 45  1  0  0  0  0
 44 46  1  0  0  0  0
 45 47  1  0  0  0  0
 45 48  2  0  0  0  0
 47 49  1  0  0  0  0
 47 50  1  0  0  0  0
 49 51  2  0  0  0  0
 52 53  1  0  0  0  0
 52 54  1  0  0  0  0
 53 54  1  0  0  0  0
M  CHG  3  16   1  19   1  23   1
M  END