
 OpenBabel11152013203D

 53 61  0  0  1  0  0  0  0  0999 V2000
  -11.3160   15.8040   67.1940 C   0  0  0  0  0  0  0  0  0  0  0  0
  -10.7230   16.8290   67.8470 C   0  0  0  0  0  0  0  0  0  0  0  0
  -10.8200   16.9960   69.2290 O   0  0  0  0  0  0  0  0  0  0  0  0
  -11.4770   16.0420   70.0030 C   0  0  0  0  0  0  0  0  0  0  0  0
  -12.0720   14.9780   69.4490 C   0  0  0  0  0  0  0  0  0  0  0  0
  -12.0810   14.7620   67.9750 C   0  0  0  0  0  0  0  0  0  0  0  0
  -12.7710   13.9380   70.2680 C   0  0  0  0  0  0  0  0  0  0  0  0
  -12.1180   12.6970   70.0130 O   0  0  0  0  0  0  0  0  0  0  0  0
  -12.3640   11.6140   70.7890 C   0  0  0  0  0  0  0  0  0  0  0  0
  -11.9760   10.5010   70.4640 O   0  0  0  0  0  0  0  0  0  0  0  0
  -13.0290   11.8230   71.9500 O   0  0  0  0  0  0  0  0  0  0  0  0
  -13.3990   13.1110   72.4350 C   0  0  0  0  0  0  0  0  0  0  0  0
  -12.7010   14.2020   71.7180 C   0  0  0  0  0  0  0  0  0  0  0  0
  -12.0750   15.2840   72.2290 C   0  0  0  0  0  0  0  0  0  0  0  0
  -11.4720   16.2240   71.3800 O   0  0  0  0  0  0  0  0  0  0  0  0
  -14.7920   13.2860   72.2270 O   0  0  0  0  0  0  0  0  0  0  0  0
   -9.9060   17.8710   67.1870 C   0  0  0  0  0  0  0  0  0  0  0  0
  -10.5660   18.5800   66.2470 N   0  0  0  0  0  0  0  0  0  0  0  0
   -9.9440   19.5320   65.6060 N   0  0  0  0  0  0  0  0  0  0  0  0
   -8.6980   19.8470   65.8640 N   0  0  0  0  0  0  0  0  0  0  0  0
   -7.9970   19.1780   66.7920 C   0  0  0  0  0  0  0  0  0  0  0  0
   -8.5660   18.1150   67.4960 C   0  0  0  0  0  0  0  0  0  0  0  0
   -6.6750   19.5400   67.0930 C   0  0  0  0  0  0  0  0  0  0  0  0
   -7.7780   17.3940   68.4340 C   0  0  0  0  0  0  0  0  0  0  0  0
   -6.4660   17.7890   68.7150 C   0  0  0  0  0  0  0  0  0  0  0  0
   -5.6560   17.0580   69.6990 C   0  0  0  0  0  0  0  0  0  0  0  0
   -5.9210   18.8900   68.0750 C   0  0  0  0  0  0  0  0  0  0  0  0
   -6.0240   16.0050   70.1980 O   0  0  0  0  0  0  0  0  0  0  0  0
   -4.3420   17.6830   70.1010 C   0  0  0  0  0  0  0  0  0  0  0  0
   -3.5500   17.0740   70.8050 O   0  0  0  0  0  0  0  0  0  0  0  0
   -4.1620   19.1130   69.6510 C   0  0  0  0  0  0  0  0  0  0  0  0
   -4.6730   19.3950   68.3390 O   0  0  0  0  0  0  0  0  0  0  0  0
   -6.1000   20.5970   66.4190 O   0  0  0  0  0  0  0  0  0  0  0  0
   -4.7300   20.0660   70.6570 C   0  0  0  0  0  0  0  0  0  0  0  0
   -6.0660   20.5680   70.3960 O   0  0  0  0  0  0  0  0  0  0  0  0
   -4.4480   19.7360   72.0180 O   0  0  0  0  0  0  0  0  0  0  0  0
   -3.9120   20.8820   71.5540 C   0  0  0  0  0  0  0  0  0  0  0  0
   -4.0660   22.0220   71.9250 O   0  0  0  0  0  0  0  0  0  0  0  0
  -11.2220   15.6540   65.8100 O   0  0  0  0  0  0  0  0  0  0  0  0
  -10.2060   14.7460   65.3450 C   0  0  0  0  0  0  0  0  0  0  0  0
   -9.2460   14.4600   66.3670 O   0  0  0  0  0  0  0  0  0  0  0  0
   -9.4850   13.3870   67.2020 C   0  0  0  0  0  0  0  0  0  0  0  0
   -9.0400   13.3710   68.4650 C   0  0  0  0  0  0  0  0  0  0  0  0
  -10.1440   12.1570   66.6900 C   0  0  0  0  0  0  0  0  0  0  0  0
   -8.3700   14.4270   69.0230 O   0  0  0  0  0  0  0  0  0  0  0  0
  -10.3910   12.2480   65.2230 C   0  0  0  0  0  0  0  0  0  0  0  0
  -10.5150   11.2150   67.3660 O   0  0  0  0  0  0  0  0  0  0  0  0
  -10.8490   13.5410   64.6520 C   0  0  0  0  0  0  0  0  0  0  0  0
   -9.8750   11.0260   64.2230 S   0  0  0  0  0  0  0  0  0  0  0  0
  -11.6860   13.5820   63.7640 O   0  0  0  0  0  0  0  0  0  0  0  0
  -11.9430   15.5960   73.6680 C   0  0  0  0  0  0  0  0  0  0  0  0
  -12.2560   16.9040   74.1770 O   0  0  0  0  0  0  0  0  0  0  0  0
  -13.0680   15.7740   74.5440 O   0  0  0  0  0  0  0  0  0  0  0  0
  1 39  1  0  0  0  0
  1  2  2  0  0  0  0
  1  6  1  0  0  0  0
  2  3  1  0  0  0  0
  2 17  1  0  0  0  0
  3  4  1  0  0  0  0
  4  5  2  0  0  0  0
  4 15  1  0  0  0  0
  5  6  1  0  0  0  0
  5  7  1  0  0  0  0
  7  8  1  0  0  0  0
  7 13  1  0  0  0  0
  8  9  1  0  0  0  0
  9 10  2  0  0  0  0
  9 11  1  0  0  0  0
 11 12  1  0  0  0  0
 12 13  1  0  0  0  0
 12 16  1  0  0  0  0
 13 14  2  0  0  0  0
 14 15  1  0  0  0  0
 14 51  1  0  0  0  0
 17 18  2  0  0  0  0
 17 22  1  0  0  0  0
 18 19  1  0  0  0  0
 19 20  2  0  0  0  0
 20 21  1  0  0  0  0
 21 22  2  0  0  0  0
 21 23  1  0  0  0  0
 22 24  1  0  0  0  0
 23 27  2  0  0  0  0
 23 33  1  0  0  0  0
 24 25  2  0  0  0  0
 25 26  1  0  0  0  0
 25 27  1  0  0  0  0
 26 28  2  0  0  0  0
 26 29  1  0  0  0  0
 27 32  1  0  0  0  0
 29 30  2  0  0  0  0
 29 31  1  0  0  0  0
 31 32  1  0  0  0  0
 31 34  1  0  0  0  0
 34 35  1  0  0  0  0
 34 36  1  0  0  0  0
 34 37  1  0  0  0  0
 36 37  1  0  0  0  0
 37 38  2  0  0  0  0
 39 40  1  0  0  0  0
 40 41  1  0  0  0  0
 40 48  1  0  0  0  0
 41 42  1  0  0  0  0
 42 43  2  0  0  0  0
 42 44  1  0  0  0  0
 43 45  1  0  0  0  0
 44 46  1  0  0  0  0
 44 47  2  0  0  0  0
 46 48  1  0  0  0  0
 46 49  2  0  0  0  0
 48 50  2  0  0  0  0
 51 52  1  0  0  0  0
 51 53  1  0  0  0  0
 52 53  1  0  0  0  0
M  END
