
 OpenBabel11222002203D

 54 62  0  0  1  0  0  0  0  0999 V2000
  -10.0750   14.9590   66.9200 C   0  0  0  0  0  0  0  0  0  0  0  0
  -10.3470   16.0590   67.6770 C   0  0  0  0  0  0  0  0  0  0  0  0
  -10.9530   15.9400   68.9480 O   0  0  0  0  0  0  0  0  0  0  0  0
  -11.3750   14.6970   69.4150 C   0  0  0  0  0  0  0  0  0  0  0  0
  -10.9880   13.5740   68.7890 C   0  0  0  0  0  0  0  0  0  0  0  0
  -10.1700   13.6040   67.5500 C   0  0  0  0  0  0  0  0  0  0  0  0
  -11.3920   12.2070   69.2340 C   0  0  0  0  0  0  0  0  0  0  0  0
  -10.2230   11.4740   69.5240 O   0  0  0  0  0  0  0  0  0  0  0  0
  -10.4150   10.2000   69.9620 C   0  0  0  0  0  0  0  0  0  0  0  0
   -9.5320    9.3640   69.8560 O   0  0  0  0  0  0  0  0  0  0  0  0
  -11.6230    9.9250   70.5200 O   0  0  0  0  0  0  0  0  0  0  0  0
  -12.4750   10.8950   70.9060 C   0  0  0  0  0  0  0  0  0  0  0  0
  -13.5010   10.6650   71.5290 O   0  0  0  0  0  0  0  0  0  0  0  0
  -12.1740   12.2570   70.4660 C   0  0  0  0  0  0  0  0  0  0  0  0
  -12.5660   13.4050   71.0690 C   0  0  0  0  0  0  0  0  0  0  0  0
  -12.1800   14.6430   70.5390 O   0  0  0  0  0  0  0  0  0  0  0  0
   -9.9610   17.4730   67.3250 C   0  0  0  0  0  0  0  0  0  0  0  0
  -10.7280   18.1440   66.3560 C   0  0  0  0  0  0  0  0  0  0  0  0
  -10.3600   19.4040   65.9460 C   0  0  0  0  0  0  0  0  0  0  0  0
  -11.0910   20.0150   65.0070 F   0  0  0  0  0  0  0  0  0  0  0  0
   -9.2860   20.0470   66.4150 N   0  0  0  0  0  0  0  0  0  0  0  0
   -8.5070   19.4050   67.3050 C   0  0  0  0  0  0  0  0  0  0  0  0
   -8.7840   18.1030   67.8030 C   0  0  0  0  0  0  0  0  0  0  0  0
   -7.3490   20.0660   67.7550 C   0  0  0  0  0  0  0  0  0  0  0  0
   -7.9210   17.4920   68.6540 N   0  0  0  0  0  0  0  0  0  0  0  0
   -6.7780   18.1480   69.0140 C   0  0  0  0  0  0  0  0  0  0  0  0
   -5.7960   17.3540   69.7650 C   0  0  0  0  0  0  0  0  0  0  0  0
   -6.4480   19.4220   68.6080 C   0  0  0  0  0  0  0  0  0  0  0  0
   -5.9900   16.1690   70.0230 O   0  0  0  0  0  0  0  0  0  0  0  0
   -4.4890   18.0410   70.1050 C   0  0  0  0  0  0  0  0  0  0  0  0
   -3.5310   17.3830   70.4870 O   0  0  0  0  0  0  0  0  0  0  0  0
   -4.4850   19.5500   69.9630 C   0  0  0  0  0  0  0  0  0  0  0  0
   -5.2960   20.0870   68.9210 O   0  0  0  0  0  0  0  0  0  0  0  0
   -6.9690   21.2950   67.1450 N   0  0  0  0  0  0  0  0  0  0  0  0
   -4.8320   20.2060   71.2600 C   0  0  0  0  0  0  0  0  0  0  0  0
   -6.2310   20.1760   71.6290 O   0  0  0  0  0  0  0  0  0  0  0  0
   -3.9000   19.9850   72.3140 O   0  0  0  0  0  0  0  0  0  0  0  0
   -4.0320   21.2610   71.8910 C   0  0  0  0  0  0  0  0  0  0  0  0
   -4.3970   22.2400   72.4940 O   0  0  0  0  0  0  0  0  0  0  0  0
   -9.6160   15.0200   65.6080 O   0  0  0  0  0  0  0  0  0  0  0  0
  -10.2650   14.2560   64.5500 C   0  0  0  0  0  0  0  0  0  0  0  0
   -9.8050   12.9010   64.5420 O   0  0  0  0  0  0  0  0  0  0  0  0
  -10.4520   12.0750   63.6360 C   0  0  0  0  0  0  0  0  0  0  0  0
   -9.8040   11.2710   62.7840 C   0  0  0  0  0  0  0  0  0  0  0  0
  -11.9340   12.0140   63.6060 C   0  0  0  0  0  0  0  0  0  0  0  0
   -8.4420   11.2480   62.6590 O   0  0  0  0  0  0  0  0  0  0  0  0
  -12.5680   13.1610   64.3400 C   0  0  0  0  0  0  0  0  0  0  0  0
  -12.6010   11.1650   63.0420 O   0  0  0  0  0  0  0  0  0  0  0  0
  -11.7940   14.4470   64.4860 C   0  0  0  0  0  0  0  0  0  0  0  0
  -13.6380   13.0250   64.9150 O   0  0  0  0  0  0  0  0  0  0  0  0
  -12.3850   15.5080   64.6230 O   0  0  0  0  0  0  0  0  0  0  0  0
  -13.3510   13.4320   72.3270 C   0  0  0  0  0  0  0  0  0  0  0  0
  -13.6690   14.6810   72.9590 O   0  0  0  0  0  0  0  0  0  0  0  0
  -14.7080   13.8990   72.3410 O   0  0  0  0  0  0  0  0  0  0  0  0
  1 40  1  0  0  0  0
  1  2  2  0  0  0  0
  1  6  1  0  0  0  0
  2  3  1  0  0  0  0
  2 17  1  0  0  0  0
  3  4  1  0  0  0  0
  4  5  2  0  0  0  0
  4 16  1  0  0  0  0
  5  6  1  0  0  0  0
  5  7  1  0  0  0  0
  7  8  1  0  0  0  0
  7 14  1  0  0  0  0
  8  9  1  0  0  0  0
  9 10  2  0  0  0  0
  9 11  1  0  0  0  0
 11 12  1  0  0  0  0
 12 13  2  0  0  0  0
 12 14  1  0  0  0  0
 14 15  2  0  0  0  0
 15 16  1  0  0  0  0
 15 52  1  0  0  0  0
 17 18  2  0  0  0  0
 17 23  1  0  0  0  0
 18 19  1  0  0  0  0
 19 20  1  0  0  0  0
 19 21  2  0  0  0  0
 21 22  1  0  0  0  0
 22 23  2  0  0  0  0
 22 24  1  0  0  0  0
 23 25  1  0  0  0  0
 24 28  2  0  0  0  0
 24 34  1  0  0  0  0
 25 26  2  0  0  0  0
 26 27  1  0  0  0  0
 26 28  1  0  0  0  0
 27 29  2  0  0  0  0
 27 30  1  0  0  0  0
 28 33  1  0  0  0  0
 30 31  2  0  0  0  0
 30 32  1  0  0  0  0
 32 33  1  0  0  0  0
 32 35  1  0  0  0  0
 35 36  1  0  0  0  0
 35 37  1  0  0  0  0
 35 38  1  0  0  0  0
 37 38  1  0  0  0  0
 38 39  2  0  0  0  0
 40 41  1  0  0  0  0
 41 42  1  0  0  0  0
 41 49  1  0  0  0  0
 42 43  1  0  0  0  0
 43 44  2  0  0  0  0
 43 45  1  0  0  0  0
 44 46  1  0  0  0  0
 45 47  1  0  0  0  0
 45 48  2  0  0  0  0
 47 49  1  0  0  0  0
 47 50  2  0  0  0  0
 49 51  2  0  0  0  0
 52 53  1  0  0  0  0
 52 54  1  0  0  0  0
 53 54  1  0  0  0  0
M  CHG  1  16   1
M  END