
 OpenBabel11212022093D

 54 62  0  0  1  0  0  0  0  0999 V2000
  -11.3010   15.7910   67.3520 C   0  0  0  0  0  0  0  0  0  0  0  0
  -10.7460   16.8310   68.0280 C   0  0  0  0  0  0  0  0  0  0  0  0
  -10.8950   16.9510   69.4260 O   0  0  0  0  0  0  0  0  0  0  0  0
  -11.5970   15.9910   70.1660 C   0  0  0  0  0  0  0  0  0  0  0  0
  -12.1040   14.9040   69.5650 C   0  0  0  0  0  0  0  0  0  0  0  0
  -12.0470   14.7100   68.0930 C   0  0  0  0  0  0  0  0  0  0  0  0
  -12.7360   13.7740   70.3250 C   0  0  0  0  0  0  0  0  0  0  0  0
  -11.8650   12.6640   70.1850 O   0  0  0  0  0  0  0  0  0  0  0  0
  -12.1500   11.5290   70.8760 C   0  0  0  0  0  0  0  0  0  0  0  0
  -11.6020   10.4740   70.6050 O   0  0  0  0  0  0  0  0  0  0  0  0
  -13.0540   11.6510   71.8750 O   0  0  0  0  0  0  0  0  0  0  0  0
  -13.4350   12.8950   72.4540 C   0  0  0  0  0  0  0  0  0  0  0  0
  -12.8180   14.0610   71.7680 C   0  0  0  0  0  0  0  0  0  0  0  0
  -12.3650   15.2100   72.3160 C   0  0  0  0  0  0  0  0  0  0  0  0
  -11.7360   16.1710   71.5280 O   0  0  0  0  0  0  0  0  0  0  0  0
  -14.8270   13.0650   72.2910 O   0  0  0  0  0  0  0  0  0  0  0  0
   -9.9310   17.9300   67.3740 C   0  0  0  0  0  0  0  0  0  0  0  0
  -10.5350   18.7320   66.4000 C   0  0  0  0  0  0  0  0  0  0  0  0
   -9.8880   19.7480   65.8220 N   0  0  0  0  0  0  0  0  0  0  0  0
  -10.5360   20.5050   64.9130 F   0  0  0  0  0  0  0  0  0  0  0  0
   -8.6380   20.0460   66.1030 N   0  0  0  0  0  0  0  0  0  0  0  0
   -7.9660   19.3130   66.9890 C   0  0  0  0  0  0  0  0  0  0  0  0
   -8.5610   18.2170   67.6560 C   0  0  0  0  0  0  0  0  0  0  0  0
   -6.6360   19.6590   67.2670 C   0  0  0  0  0  0  0  0  0  0  0  0
   -7.7350   17.5030   68.5570 C   0  0  0  0  0  0  0  0  0  0  0  0
   -6.3990   17.8610   68.7940 C   0  0  0  0  0  0  0  0  0  0  0  0
   -5.5890   17.0640   69.7120 C   0  0  0  0  0  0  0  0  0  0  0  0
   -5.8490   18.9660   68.1850 C   0  0  0  0  0  0  0  0  0  0  0  0
   -5.9820   15.9570   70.0540 O   0  0  0  0  0  0  0  0  0  0  0  0
   -4.2900   17.6740   70.1920 C   0  0  0  0  0  0  0  0  0  0  0  0
   -3.5470   17.0230   70.9110 O   0  0  0  0  0  0  0  0  0  0  0  0
   -4.0700   19.1170   69.7740 C   0  0  0  0  0  0  0  0  0  0  0  0
   -4.6010   19.4390   68.4700 O   0  0  0  0  0  0  0  0  0  0  0  0
   -6.1100   20.7280   66.6480 F   0  0  0  0  0  0  0  0  0  0  0  0
   -4.5140   20.0820   70.8540 C   0  0  0  0  0  0  0  0  0  0  0  0
   -5.8870   20.5100   70.7990 O   0  0  0  0  0  0  0  0  0  0  0  0
   -4.0060   19.8360   72.1720 O   0  0  0  0  0  0  0  0  0  0  0  0
   -3.6150   20.9660   71.5740 C   0  0  0  0  0  0  0  0  0  0  0  0
   -2.5090   21.4070   71.2970 O   0  0  0  0  0  0  0  0  0  0  0  0
  -11.1870   15.6640   65.9710 O   0  0  0  0  0  0  0  0  0  0  0  0
  -10.9670   14.3570   65.4050 C   0  0  0  0  0  0  0  0  0  0  0  0
  -10.3380   13.4900   66.3410 O   0  0  0  0  0  0  0  0  0  0  0  0
   -9.9780   12.2610   65.7910 C   0  0  0  0  0  0  0  0  0  0  0  0
   -8.8880   11.6270   66.2490 C   0  0  0  0  0  0  0  0  0  0  0  0
  -10.7660   11.6300   64.6780 C   0  0  0  0  0  0  0  0  0  0  0  0
   -8.0590   12.0480   67.2660 N   0  0  0  0  0  0  0  0  0  0  0  0
  -11.9880   12.4330   64.2500 C   0  0  0  0  0  0  0  0  0  0  0  0
  -10.4420   10.6020   64.1100 O   0  0  0  0  0  0  0  0  0  0  0  0
  -12.2690   13.7230   64.9790 C   0  0  0  0  0  0  0  0  0  0  0  0
  -12.6280   12.1600   63.2490 O   0  0  0  0  0  0  0  0  0  0  0  0
  -13.3810   14.2010   65.1380 O   0  0  0  0  0  0  0  0  0  0  0  0
  -12.4670   15.5130   73.7620 C   0  0  0  0  0  0  0  0  0  0  0  0
  -12.1010   16.8010   74.2680 O   0  0  0  0  0  0  0  0  0  0  0  0
  -13.4860   16.4010   74.2500 O   0  0  0  0  0  0  0  0  0  0  0  0
  1 40  1  0  0  0  0
  1  2  2  0  0  0  0
  1  6  1  0  0  0  0
  2  3  1  0  0  0  0
  2 17  1  0  0  0  0
  3  4  1  0  0  0  0
  4  5  2  0  0  0  0
  4 15  1  0  0  0  0
  5  6  1  0  0  0  0
  5  7  1  0  0  0  0
  7  8  1  0  0  0  0
  7 13  1  0  0  0  0
  8  9  1  0  0  0  0
  9 10  2  0  0  0  0
  9 11  1  0  0  0  0
 11 12  1  0  0  0  0
 12 13  1  0  0  0  0
 12 16  1  0  0  0  0
 13 14  2  0  0  0  0
 14 15  1  0  0  0  0
 14 52  1  0  0  0  0
 17 18  2  0  0  0  0
 17 23  1  0  0  0  0
 18 19  1  0  0  0  0
 19 20  1  0  0  0  0
 19 21  2  0  0  0  0
 21 22  1  0  0  0  0
 22 23  2  0  0  0  0
 22 24  1  0  0  0  0
 23 25  1  0  0  0  0
 24 28  2  0  0  0  0
 24 34  1  0  0  0  0
 25 26  2  0  0  0  0
 26 27  1  0  0  0  0
 26 28  1  0  0  0  0
 27 29  2  0  0  0  0
 27 30  1  0  0  0  0
 28 33  1  0  0  0  0
 30 31  2  0  0  0  0
 30 32  1  0  0  0  0
 32 33  1  0  0  0  0
 32 35  1  0  0  0  0
 35 36  1  0  0  0  0
 35 37  1  0  0  0  0
 35 38  1  0  0  0  0
 37 38  1  0  0  0  0
 38 39  2  0  0  0  0
 40 41  1  0  0  0  0
 41 42  1  0  0  0  0
 41 49  1  0  0  0  0
 42 43  1  0  0  0  0
 43 44  2  0  0  0  0
 43 45  1  0  0  0  0
 44 46  1  0  0  0  0
 45 47  1  0  0  0  0
 45 48  2  0  0  0  0
 47 49  1  0  0  0  0
 47 50  2  0  0  0  0
 49 51  2  0  0  0  0
 52 53  1  0  0  0  0
 52 54  1  0  0  0  0
 53 54  1  0  0  0  0
M  CHG  2  15   1  19   1
M  END