
 OpenBabel11272001083D

 54 62  0  0  1  0  0  0  0  0999 V2000
   -9.7440   15.7310   67.9460 C   0  0  0  0  0  0  0  0  0  0  0  0
   -9.7760   16.9380   68.5640 C   0  0  0  0  0  0  0  0  0  0  0  0
  -10.3320   17.1480   69.8240 O   0  0  0  0  0  0  0  0  0  0  0  0
  -11.0380   16.1320   70.4260 C   0  0  0  0  0  0  0  0  0  0  0  0
  -11.0580   14.8570   69.9120 C   0  0  0  0  0  0  0  0  0  0  0  0
  -10.2890   14.5210   68.6740 C   0  0  0  0  0  0  0  0  0  0  0  0
  -11.8230   13.9200   70.6030 C   0  0  0  0  0  0  0  0  0  0  0  0
  -11.8680   12.6150   70.1010 O   0  0  0  0  0  0  0  0  0  0  0  0
  -12.5600   11.5720   70.7130 C   0  0  0  0  0  0  0  0  0  0  0  0
  -12.5320   10.4410   70.2430 O   0  0  0  0  0  0  0  0  0  0  0  0
  -13.2590   11.8730   71.8290 O   0  0  0  0  0  0  0  0  0  0  0  0
  -13.3640   13.1840   72.3860 C   0  0  0  0  0  0  0  0  0  0  0  0
  -12.5370   14.2410   71.7410 C   0  0  0  0  0  0  0  0  0  0  0  0
  -12.4480   15.5540   72.2180 C   0  0  0  0  0  0  0  0  0  0  0  0
  -11.7060   16.4830   71.5470 N   0  0  0  0  0  0  0  0  0  0  0  0
  -14.7350   13.5630   72.3670 O   0  0  0  0  0  0  0  0  0  0  0  0
   -9.2640   18.2000   67.9770 C   0  0  0  0  0  0  0  0  0  0  0  0
  -10.1410   18.8090   67.1550 N   0  0  0  0  0  0  0  0  0  0  0  0
   -9.7390   19.9640   66.6230 C   0  0  0  0  0  0  0  0  0  0  0  0
  -10.6120   20.6070   65.8340 F   0  0  0  0  0  0  0  0  0  0  0  0
   -8.5520   20.5560   66.8170 N   0  0  0  0  0  0  0  0  0  0  0  0
   -7.6850   19.9510   67.6420 C   0  0  0  0  0  0  0  0  0  0  0  0
   -8.0070   18.7520   68.3010 C   0  0  0  0  0  0  0  0  0  0  0  0
   -6.4200   20.5490   67.8670 C   0  0  0  0  0  0  0  0  0  0  0  0
   -7.0690   18.1900   69.2010 C   0  0  0  0  0  0  0  0  0  0  0  0
   -5.8170   18.7850   69.3920 C   0  0  0  0  0  0  0  0  0  0  0  0
   -4.8200   18.1210   70.2330 C   0  0  0  0  0  0  0  0  0  0  0  0
   -5.4800   19.9630   68.7410 C   0  0  0  0  0  0  0  0  0  0  0  0
   -5.0940   17.2010   70.9850 O   0  0  0  0  0  0  0  0  0  0  0  0
   -3.4140   18.6490   70.1160 C   0  0  0  0  0  0  0  0  0  0  0  0
   -2.4490   17.9140   70.2530 O   0  0  0  0  0  0  0  0  0  0  0  0
   -3.3620   20.1360   69.8860 C   0  0  0  0  0  0  0  0  0  0  0  0
   -4.2800   20.6170   68.8930 O   0  0  0  0  0  0  0  0  0  0  0  0
   -5.9990   21.6180   67.0250 N   0  0  0  0  0  0  0  0  0  0  0  0
   -3.5450   20.8680   71.1860 C   0  0  0  0  0  0  0  0  0  0  0  0
   -4.5690   21.8870   71.2220 O   0  0  0  0  0  0  0  0  0  0  0  0
   -3.5130   20.0530   72.3650 O   0  0  0  0  0  0  0  0  0  0  0  0
   -2.5030   20.9150   72.1910 C   0  0  0  0  0  0  0  0  0  0  0  0
   -1.2990   20.7260   72.1510 O   0  0  0  0  0  0  0  0  0  0  0  0
   -9.1730   15.5630   66.6780 O   0  0  0  0  0  0  0  0  0  0  0  0
   -9.9100   14.8000   65.6970 C   0  0  0  0  0  0  0  0  0  0  0  0
  -10.5940   13.7020   66.2970 O   0  0  0  0  0  0  0  0  0  0  0  0
  -11.2210   12.8740   65.3860 C   0  0  0  0  0  0  0  0  0  0  0  0
  -11.2240   11.5400   65.5220 C   0  0  0  0  0  0  0  0  0  0  0  0
  -11.9260   13.4270   64.1900 C   0  0  0  0  0  0  0  0  0  0  0  0
  -10.5820   10.8720   66.5300 O   0  0  0  0  0  0  0  0  0  0  0  0
  -11.7610   14.8950   63.9000 C   0  0  0  0  0  0  0  0  0  0  0  0
  -12.5750   12.6920   63.4440 O   0  0  0  0  0  0  0  0  0  0  0  0
  -10.9070   15.6580   64.8910 C   0  0  0  0  0  0  0  0  0  0  0  0
  -12.9790   15.4910   63.7130 F   0  0  0  0  0  0  0  0  0  0  0  0
  -10.9130   16.8910   64.9220 O   0  0  0  0  0  0  0  0  0  0  0  0
  -13.1730   16.0230   73.4610 C   0  0  0  0  0  0  0  0  0  0  0  0
  -12.6070   15.6980   74.7400 O   0  0  0  0  0  0  0  0  0  0  0  0
  -12.5360   17.0470   74.2450 O   0  0  0  0  0  0  0  0  0  0  0  0
  1 40  1  0  0  0  0
  1  2  2  0  0  0  0
  1  6  1  0  0  0  0
  2  3  1  0  0  0  0
  2 17  1  0  0  0  0
  3  4  1  0  0  0  0
  4  5  2  0  0  0  0
  4 15  1  0  0  0  0
  5  6  1  0  0  0  0
  5  7  1  0  0  0  0
  7  8  1  0  0  0  0
  7 13  2  0  0  0  0
  8  9  1  0  0  0  0
  9 10  2  0  0  0  0
  9 11  1  0  0  0  0
 11 12  1  0  0  0  0
 12 13  1  0  0  0  0
 12 16  1  0  0  0  0
 13 14  1  0  0  0  0
 14 15  2  0  0  0  0
 14 52  1  0  0  0  0
 17 18  2  0  0  0  0
 17 23  1  0  0  0  0
 18 19  1  0  0  0  0
 19 20  1  0  0  0  0
 19 21  2  0  0  0  0
 21 22  1  0  0  0  0
 22 23  2  0  0  0  0
 22 24  1  0  0  0  0
 23 25  1  0  0  0  0
 24 28  2  0  0  0  0
 24 34  1  0  0  0  0
 25 26  2  0  0  0  0
 26 27  1  0  0  0  0
 26 28  1  0  0  0  0
 27 29  2  0  0  0  0
 27 30  1  0  0  0  0
 28 33  1  0  0  0  0
 30 31  2  0  0  0  0
 30 32  1  0  0  0  0
 32 33  1  0  0  0  0
 32 35  1  0  0  0  0
 35 36  1  0  0  0  0
 35 37  1  0  0  0  0
 35 38  1  0  0  0  0
 37 38  1  0  0  0  0
 38 39  2  0  0  0  0
 40 41  1  0  0  0  0
 41 42  1  0  0  0  0
 41 49  1  0  0  0  0
 42 43  1  0  0  0  0
 43 44  2  0  0  0  0
 43 45  1  0  0  0  0
 44 46  1  0  0  0  0
 45 47  1  0  0  0  0
 45 48  2  0  0  0  0
 47 49  1  0  0  0  0
 47 50  1  0  0  0  0
 49 51  2  0  0  0  0
 52 53  1  0  0  0  0
 52 54  1  0  0  0  0
 53 54  1  0  0  0  0
M  END
