
 OpenBabel11212022363D

 54 62  0  0  1  0  0  0  0  0999 V2000
  -10.9600   15.7660   67.4190 C   0  0  0  0  0  0  0  0  0  0  0  0
  -10.5700   16.8810   68.0890 C   0  0  0  0  0  0  0  0  0  0  0  0
  -10.8580   17.0490   69.4540 O   0  0  0  0  0  0  0  0  0  0  0  0
  -11.6280   16.0830   70.1220 C   0  0  0  0  0  0  0  0  0  0  0  0
  -11.9000   14.8970   69.5470 C   0  0  0  0  0  0  0  0  0  0  0  0
  -11.5030   14.5720   68.1480 C   0  0  0  0  0  0  0  0  0  0  0  0
  -12.6420   13.8050   70.2510 C   0  0  0  0  0  0  0  0  0  0  0  0
  -11.7480   12.7130   70.3830 O   0  0  0  0  0  0  0  0  0  0  0  0
  -12.2560   11.5980   70.9760 C   0  0  0  0  0  0  0  0  0  0  0  0
  -11.7300   10.5070   70.8400 O   0  0  0  0  0  0  0  0  0  0  0  0
  -13.4150   11.7920   71.6550 O   0  0  0  0  0  0  0  0  0  0  0  0
  -13.6610   13.0320   72.3100 C   0  0  0  0  0  0  0  0  0  0  0  0
  -13.0210   14.1890   71.6220 C   0  0  0  0  0  0  0  0  0  0  0  0
  -12.7440   15.4060   72.1470 C   0  0  0  0  0  0  0  0  0  0  0  0
  -12.0770   16.3670   71.3960 O   0  0  0  0  0  0  0  0  0  0  0  0
  -15.0890   13.2740   72.3060 N   0  0  0  0  0  0  0  0  0  0  0  0
   -9.7720   17.9870   67.4330 C   0  0  0  0  0  0  0  0  0  0  0  0
  -10.4220   18.7540   66.4560 C   0  0  0  0  0  0  0  0  0  0  0  0
   -9.8200   19.7740   65.8400 N   0  0  0  0  0  0  0  0  0  0  0  0
  -10.5270   20.5210   64.9700 F   0  0  0  0  0  0  0  0  0  0  0  0
   -8.5600   20.0850   66.0570 N   0  0  0  0  0  0  0  0  0  0  0  0
   -7.8490   19.3890   66.9460 C   0  0  0  0  0  0  0  0  0  0  0  0
   -8.4090   18.3130   67.6770 C   0  0  0  0  0  0  0  0  0  0  0  0
   -6.5250   19.7800   67.1890 C   0  0  0  0  0  0  0  0  0  0  0  0
   -7.5680   17.6750   68.6200 C   0  0  0  0  0  0  0  0  0  0  0  0
   -6.2290   18.0580   68.8010 C   0  0  0  0  0  0  0  0  0  0  0  0
   -5.3970   17.3470   69.7760 C   0  0  0  0  0  0  0  0  0  0  0  0
   -5.7080   19.1470   68.1280 C   0  0  0  0  0  0  0  0  0  0  0  0
   -5.8130   16.3460   70.3360 O   0  0  0  0  0  0  0  0  0  0  0  0
   -4.0210   17.9200   70.0120 C   0  0  0  0  0  0  0  0  0  0  0  0
   -3.1040   17.1960   70.3620 O   0  0  0  0  0  0  0  0  0  0  0  0
   -3.9320   19.4010   69.7180 C   0  0  0  0  0  0  0  0  0  0  0  0
   -4.4900   19.7030   68.4150 O   0  0  0  0  0  0  0  0  0  0  0  0
   -6.0490   20.8580   66.5410 F   0  0  0  0  0  0  0  0  0  0  0  0
   -4.5120   20.2390   70.8390 C   0  0  0  0  0  0  0  0  0  0  0  0
   -5.8130   20.8030   70.5890 O   0  0  0  0  0  0  0  0  0  0  0  0
   -4.3220   19.7200   72.1630 O   0  0  0  0  0  0  0  0  0  0  0  0
   -3.7460   20.8880   71.8890 C   0  0  0  0  0  0  0  0  0  0  0  0
   -2.5850   21.2750   71.9590 O   0  0  0  0  0  0  0  0  0  0  0  0
  -10.9030   15.7310   66.0440 O   0  0  0  0  0  0  0  0  0  0  0  0
  -10.4620   14.5730   65.2900 C   0  0  0  0  0  0  0  0  0  0  0  0
  -10.0610   13.5190   66.1480 O   0  0  0  0  0  0  0  0  0  0  0  0
   -9.8550   12.3090   65.4950 C   0  0  0  0  0  0  0  0  0  0  0  0
   -8.8770   11.4640   65.8520 C   0  0  0  0  0  0  0  0  0  0  0  0
  -10.7380   11.8630   64.3750 C   0  0  0  0  0  0  0  0  0  0  0  0
   -7.9720   11.7160   66.8500 O   0  0  0  0  0  0  0  0  0  0  0  0
  -11.7340   12.8970   63.9040 C   0  0  0  0  0  0  0  0  0  0  0  0
  -10.6670   10.7680   63.8440 O   0  0  0  0  0  0  0  0  0  0  0  0
  -11.7160   14.2730   64.4950 C   0  0  0  0  0  0  0  0  0  0  0  0
  -12.5450   12.6470   63.0270 O   0  0  0  0  0  0  0  0  0  0  0  0
  -12.6320   15.0700   64.3090 O   0  0  0  0  0  0  0  0  0  0  0  0
  -13.0650   15.7850   73.5400 C   0  0  0  0  0  0  0  0  0  0  0  0
  -12.2370   15.3420   74.6240 O   0  0  0  0  0  0  0  0  0  0  0  0
  -12.2390   16.7310   74.2410 O   0  0  0  0  0  0  0  0  0  0  0  0
  1 40  1  0  0  0  0
  1  2  2  0  0  0  0
  1  6  1  0  0  0  0
  2  3  1  0  0  0  0
  2 17  1  0  0  0  0
  3  4  1  0  0  0  0
  4  5  2  0  0  0  0
  4 15  1  0  0  0  0
  5  6  1  0  0  0  0
  5  7  1  0  0  0  0
  7  8  1  0  0  0  0
  7 13  1  0  0  0  0
  8  9  1  0  0  0  0
  9 10  2  0  0  0  0
  9 11  1  0  0  0  0
 11 12  1  0  0  0  0
 12 13  1  0  0  0  0
 12 16  1  0  0  0  0
 13 14  2  0  0  0  0
 14 15  1  0  0  0  0
 14 52  1  0  0  0  0
 17 18  2  0  0  0  0
 17 23  1  0  0  0  0
 18 19  1  0  0  0  0
 19 20  1  0  0  0  0
 19 21  2  0  0  0  0
 21 22  1  0  0  0  0
 22 23  2  0  0  0  0
 22 24  1  0  0  0  0
 23 25  1  0  0  0  0
 24 28  2  0  0  0  0
 24 34  1  0  0  0  0
 25 26  2  0  0  0  0
 26 27  1  0  0  0  0
 26 28  1  0  0  0  0
 27 29  2  0  0  0  0
 27 30  1  0  0  0  0
 28 33  1  0  0  0  0
 30 31  2  0  0  0  0
 30 32  1  0  0  0  0
 32 33  1  0  0  0  0
 32 35  1  0  0  0  0
 35 36  1  0  0  0  0
 35 37  1  0  0  0  0
 35 38  1  0  0  0  0
 37 38  1  0  0  0  0
 38 39  2  0  0  0  0
 40 41  1  0  0  0  0
 41 42  1  0  0  0  0
 41 49  1  0  0  0  0
 42 43  1  0  0  0  0
 43 44  2  0  0  0  0
 43 45  1  0  0  0  0
 44 46  1  0  0  0  0
 45 47  1  0  0  0  0
 45 48  2  0  0  0  0
 47 49  1  0  0  0  0
 47 50  2  0  0  0  0
 49 51  2  0  0  0  0
 52 53  1  0  0  0  0
 52 54  1  0  0  0  0
 53 54  1  0  0  0  0
M  CHG  2  15   1  19   1
M  END