
 OpenBabel11262000583D

 54 62  0  0  1  0  0  0  0  0999 V2000
  -11.0780   15.7330   67.0040 C   0  0  0  0  0  0  0  0  0  0  0  0
  -10.6670   16.8080   67.7310 C   0  0  0  0  0  0  0  0  0  0  0  0
  -11.0150   16.9270   69.0960 O   0  0  0  0  0  0  0  0  0  0  0  0
  -11.6260   15.8540   69.7710 C   0  0  0  0  0  0  0  0  0  0  0  0
  -12.0100   14.7490   69.1030 C   0  0  0  0  0  0  0  0  0  0  0  0
  -11.8740   14.6240   67.6280 C   0  0  0  0  0  0  0  0  0  0  0  0
  -12.6030   13.5480   69.7780 C   0  0  0  0  0  0  0  0  0  0  0  0
  -11.7170   12.4630   69.5750 O   0  0  0  0  0  0  0  0  0  0  0  0
  -11.9930   11.3280   70.2520 C   0  0  0  0  0  0  0  0  0  0  0  0
  -11.4230   10.2420   69.9000 N   0  0  0  0  0  0  0  0  0  0  0  0
  -12.8670   11.3700   71.2810 O   0  0  0  0  0  0  0  0  0  0  0  0
  -13.2240   12.5360   71.8570 C   0  0  0  0  0  0  0  0  0  0  0  0
  -13.9760   12.6240   72.8150 O   0  0  0  0  0  0  0  0  0  0  0  0
  -12.7080   13.7490   71.2240 C   0  0  0  0  0  0  0  0  0  0  0  0
  -12.3700   14.8900   71.8610 C   0  0  0  0  0  0  0  0  0  0  0  0
  -11.8220   15.9520   71.1380 O   0  0  0  0  0  0  0  0  0  0  0  0
   -9.8800   17.9780   67.1600 C   0  0  0  0  0  0  0  0  0  0  0  0
  -10.5270   18.8180   66.2450 C   0  0  0  0  0  0  0  0  0  0  0  0
   -9.9260   19.8910   65.7240 N   0  0  0  0  0  0  0  0  0  0  0  0
  -10.5830   20.6300   64.8080 F   0  0  0  0  0  0  0  0  0  0  0  0
   -8.7210   20.2730   66.0830 N   0  0  0  0  0  0  0  0  0  0  0  0
   -8.0310   19.5500   66.9620 C   0  0  0  0  0  0  0  0  0  0  0  0
   -8.5420   18.3520   67.5160 C   0  0  0  0  0  0  0  0  0  0  0  0
   -6.7660   20.0200   67.3380 C   0  0  0  0  0  0  0  0  0  0  0  0
   -7.6570   17.6350   68.3690 C   0  0  0  0  0  0  0  0  0  0  0  0
   -6.3850   18.1380   68.7270 C   0  0  0  0  0  0  0  0  0  0  0  0
   -5.5300   17.3970   69.6600 C   0  0  0  0  0  0  0  0  0  0  0  0
   -5.9460   19.3550   68.2480 C   0  0  0  0  0  0  0  0  0  0  0  0
   -5.9170   16.3460   70.1460 O   0  0  0  0  0  0  0  0  0  0  0  0
   -4.1970   18.0280   70.0080 C   0  0  0  0  0  0  0  0  0  0  0  0
   -3.2610   17.3340   70.3690 O   0  0  0  0  0  0  0  0  0  0  0  0
   -4.1780   19.5340   69.8720 C   0  0  0  0  0  0  0  0  0  0  0  0
   -4.7890   19.9710   68.6370 O   0  0  0  0  0  0  0  0  0  0  0  0
   -6.3390   21.1870   66.8270 F   0  0  0  0  0  0  0  0  0  0  0  0
   -4.7420   20.2200   71.0970 C   0  0  0  0  0  0  0  0  0  0  0  0
   -6.1570   20.4850   71.0850 O   0  0  0  0  0  0  0  0  0  0  0  0
   -4.2140   19.7870   72.3600 O   0  0  0  0  0  0  0  0  0  0  0  0
   -3.9600   21.0460   71.9960 C   0  0  0  0  0  0  0  0  0  0  0  0
   -2.9190   21.6670   71.8410 O   0  0  0  0  0  0  0  0  0  0  0  0
  -10.7110   15.5370   65.6830 O   0  0  0  0  0  0  0  0  0  0  0  0
   -9.9910   14.3100   65.3420 C   0  0  0  0  0  0  0  0  0  0  0  0
   -9.6120   13.6210   66.5340 O   0  0  0  0  0  0  0  0  0  0  0  0
   -9.4530   12.2470   66.4730 C   0  0  0  0  0  0  0  0  0  0  0  0
   -8.9850   11.5800   67.5370 C   0  0  0  0  0  0  0  0  0  0  0  0
   -9.8380   11.4320   65.2700 C   0  0  0  0  0  0  0  0  0  0  0  0
   -8.6180   12.1980   68.7060 O   0  0  0  0  0  0  0  0  0  0  0  0
  -10.2900   12.1980   64.0560 C   0  0  0  0  0  0  0  0  0  0  0  0
   -9.7200   10.2090   65.2680 O   0  0  0  0  0  0  0  0  0  0  0  0
  -10.9350   13.4980   64.4700 C   0  0  0  0  0  0  0  0  0  0  0  0
  -11.1830   11.5070   63.2920 F   0  0  0  0  0  0  0  0  0  0  0  0
  -12.0670   13.2560   65.2050 F   0  0  0  0  0  0  0  0  0  0  0  0
  -12.4710   15.0880   73.3270 C   0  0  0  0  0  0  0  0  0  0  0  0
  -11.9340   16.2630   73.9440 O   0  0  0  0  0  0  0  0  0  0  0  0
  -13.3620   16.0870   73.8550 O   0  0  0  0  0  0  0  0  0  0  0  0
  1 40  1  0  0  0  0
  1  2  2  0  0  0  0
  1  6  1  0  0  0  0
  2  3  1  0  0  0  0
  2 17  1  0  0  0  0
  3  4  1  0  0  0  0
  4  5  2  0  0  0  0
  4 16  1  0  0  0  0
  5  6  1  0  0  0  0
  5  7  1  0  0  0  0
  7  8  1  0  0  0  0
  7 14  1  0  0  0  0
  8  9  1  0  0  0  0
  9 10  2  0  0  0  0
  9 11  1  0  0  0  0
 11 12  1  0  0  0  0
 12 13  2  0  0  0  0
 12 14  1  0  0  0  0
 14 15  2  0  0  0  0
 15 16  1  0  0  0  0
 15 52  1  0  0  0  0
 17 18  2  0  0  0  0
 17 23  1  0  0  0  0
 18 19  1  0  0  0  0
 19 20  1  0  0  0  0
 19 21  2  0  0  0  0
 21 22  1  0  0  0  0
 22 23  2  0  0  0  0
 22 24  1  0  0  0  0
 23 25  1  0  0  0  0
 24 28  2  0  0  0  0
 24 34  1  0  0  0  0
 25 26  2  0  0  0  0
 26 27  1  0  0  0  0
 26 28  1  0  0  0  0
 27 29  2  0  0  0  0
 27 30  1  0  0  0  0
 28 33  1  0  0  0  0
 30 31  2  0  0  0  0
 30 32  1  0  0  0  0
 32 33  1  0  0  0  0
 32 35  1  0  0  0  0
 35 36  1  0  0  0  0
 35 37  1  0  0  0  0
 35 38  1  0  0  0  0
 37 38  1  0  0  0  0
 38 39  2  0  0  0  0
 40 41  1  0  0  0  0
 41 42  1  0  0  0  0
 41 49  1  0  0  0  0
 42 43  1  0  0  0  0
 43 44  2  0  0  0  0
 43 45  1  0  0  0  0
 44 46  1  0  0  0  0
 45 47  1  0  0  0  0
 45 48  2  0  0  0  0
 47 49  1  0  0  0  0
 47 50  1  0  0  0  0
 49 51  1  0  0  0  0
 52 53  1  0  0  0  0
 52 54  1  0  0  0  0
 53 54  1  0  0  0  0
M  CHG  2  16   1  19   1
M  END