
 OpenBabel11152014223D

 53 61  0  0  1  0  0  0  0  0999 V2000
  -11.1780   15.9000   67.1800 C   0  0  0  0  0  0  0  0  0  0  0  0
  -10.7010   16.9290   67.9070 C   0  0  0  0  0  0  0  0  0  0  0  0
  -10.8970   17.0590   69.2740 O   0  0  0  0  0  0  0  0  0  0  0  0
  -11.5350   16.0400   69.9590 C   0  0  0  0  0  0  0  0  0  0  0  0
  -11.9990   14.9380   69.3450 C   0  0  0  0  0  0  0  0  0  0  0  0
  -11.9210   14.7770   67.8590 C   0  0  0  0  0  0  0  0  0  0  0  0
  -12.6450   13.8310   70.1440 C   0  0  0  0  0  0  0  0  0  0  0  0
  -11.9030   12.6390   69.8840 O   0  0  0  0  0  0  0  0  0  0  0  0
  -11.9560   11.5620   70.7030 C   0  0  0  0  0  0  0  0  0  0  0  0
  -11.4170   10.5060   70.3940 O   0  0  0  0  0  0  0  0  0  0  0  0
  -12.6170   11.6940   71.8770 O   0  0  0  0  0  0  0  0  0  0  0  0
  -13.2190   12.9020   72.3160 C   0  0  0  0  0  0  0  0  0  0  0  0
  -12.6710   14.0780   71.6140 C   0  0  0  0  0  0  0  0  0  0  0  0
  -12.2240   15.2340   72.1570 C   0  0  0  0  0  0  0  0  0  0  0  0
  -11.6790   16.1870   71.3130 N   0  0  0  0  0  0  0  0  0  0  0  0
  -14.6130   12.8420   72.0700 O   0  0  0  0  0  0  0  0  0  0  0  0
   -9.9100   18.0130   67.3080 C   0  0  0  0  0  0  0  0  0  0  0  0
  -10.5840   18.7620   66.4110 N   0  0  0  0  0  0  0  0  0  0  0  0
   -9.8670   19.7210   65.8400 C   0  0  0  0  0  0  0  0  0  0  0  0
  -10.5510   20.4820   64.9470 O   0  0  0  0  0  0  0  0  0  0  0  0
   -8.5900   20.0250   66.0560 N   0  0  0  0  0  0  0  0  0  0  0  0
   -7.9490   19.2870   66.9640 C   0  0  0  0  0  0  0  0  0  0  0  0
   -8.5630   18.2320   67.6550 C   0  0  0  0  0  0  0  0  0  0  0  0
   -6.6260   19.6000   67.2580 C   0  0  0  0  0  0  0  0  0  0  0  0
   -7.8180   17.5030   68.6200 C   0  0  0  0  0  0  0  0  0  0  0  0
   -6.4980   17.8590   68.9070 C   0  0  0  0  0  0  0  0  0  0  0  0
   -5.9070   18.9280   68.2480 C   0  0  0  0  0  0  0  0  0  0  0  0
   -5.7240   17.1180   69.9130 C   0  0  0  0  0  0  0  0  0  0  0  0
   -4.6500   19.4000   68.5030 O   0  0  0  0  0  0  0  0  0  0  0  0
   -4.0600   19.0130   69.7580 C   0  0  0  0  0  0  0  0  0  0  0  0
   -4.2870   17.5550   70.0850 C   0  0  0  0  0  0  0  0  0  0  0  0
   -3.4180   16.7750   70.4430 O   0  0  0  0  0  0  0  0  0  0  0  0
   -6.2100   16.2240   70.5840 O   0  0  0  0  0  0  0  0  0  0  0  0
   -4.4520   19.9750   70.8490 C   0  0  0  0  0  0  0  0  0  0  0  0
   -5.4950   20.9170   70.5170 O   0  0  0  0  0  0  0  0  0  0  0  0
   -4.5630   19.4310   72.1710 O   0  0  0  0  0  0  0  0  0  0  0  0
   -3.5880   20.3300   71.9600 C   0  0  0  0  0  0  0  0  0  0  0  0
   -2.3900   20.2520   72.1460 O   0  0  0  0  0  0  0  0  0  0  0  0
  -10.9210   15.8130   65.8170 O   0  0  0  0  0  0  0  0  0  0  0  0
  -10.7230   14.4970   65.2940 C   0  0  0  0  0  0  0  0  0  0  0  0
  -10.3000   13.5840   66.3070 O   0  0  0  0  0  0  0  0  0  0  0  0
   -9.9890   12.3210   65.8360 C   0  0  0  0  0  0  0  0  0  0  0  0
   -9.0560   11.5680   66.4340 C   0  0  0  0  0  0  0  0  0  0  0  0
  -10.7080   11.7380   64.6690 C   0  0  0  0  0  0  0  0  0  0  0  0
   -8.3380   11.9950   67.5200 O   0  0  0  0  0  0  0  0  0  0  0  0
  -11.8870   12.5650   64.1970 C   0  0  0  0  0  0  0  0  0  0  0  0
  -10.3730   10.7100   64.1050 O   0  0  0  0  0  0  0  0  0  0  0  0
  -12.0140   13.9920   64.6710 C   0  0  0  0  0  0  0  0  0  0  0  0
  -12.7010   12.0920   63.4200 O   0  0  0  0  0  0  0  0  0  0  0  0
  -13.0430   14.6280   64.4990 O   0  0  0  0  0  0  0  0  0  0  0  0
  -12.2600   15.5840   73.5980 C   0  0  0  0  0  0  0  0  0  0  0  0
  -12.1360   16.9410   74.0500 O   0  0  0  0  0  0  0  0  0  0  0  0
  -13.3930   16.2510   74.1880 O   0  0  0  0  0  0  0  0  0  0  0  0
  1 39  1  0  0  0  0
  1  2  2  0  0  0  0
  1  6  1  0  0  0  0
  2  3  1  0  0  0  0
  2 17  1  0  0  0  0
  3  4  1  0  0  0  0
  4  5  2  0  0  0  0
  4 15  1  0  0  0  0
  5  6  1  0  0  0  0
  5  7  1  0  0  0  0
  7  8  1  0  0  0  0
  7 13  1  0  0  0  0
  8  9  1  0  0  0  0
  9 10  2  0  0  0  0
  9 11  1  0  0  0  0
 11 12  1  0  0  0  0
 12 13  1  0  0  0  0
 12 16  1  0  0  0  0
 13 14  2  0  0  0  0
 14 15  1  0  0  0  0
 14 51  1  0  0  0  0
 17 18  2  0  0  0  0
 17 23  1  0  0  0  0
 18 19  1  0  0  0  0
 19 20  1  0  0  0  0
 19 21  2  0  0  0  0
 21 22  1  0  0  0  0
 22 23  2  0  0  0  0
 22 24  1  0  0  0  0
 23 25  1  0  0  0  0
 24 27  2  0  0  0  0
 25 26  2  0  0  0  0
 26 27  1  0  0  0  0
 26 28  1  0  0  0  0
 27 29  1  0  0  0  0
 28 31  1  0  0  0  0
 28 33  2  0  0  0  0
 29 30  1  0  0  0  0
 30 31  1  0  0  0  0
 30 34  1  0  0  0  0
 31 32  2  0  0  0  0
 34 35  1  0  0  0  0
 34 36  1  0  0  0  0
 34 37  1  0  0  0  0
 36 37  1  0  0  0  0
 37 38  2  0  0  0  0
 39 40  1  0  0  0  0
 40 41  1  0  0  0  0
 40 48  1  0  0  0  0
 41 42  1  0  0  0  0
 42 43  2  0  0  0  0
 42 44  1  0  0  0  0
 43 45  1  0  0  0  0
 44 46  1  0  0  0  0
 44 47  2  0  0  0  0
 46 48  1  0  0  0  0
 46 49  2  0  0  0  0
 48 50  2  0  0  0  0
 51 52  1  0  0  0  0
 51 53  1  0  0  0  0
 52 53  1  0  0  0  0
M  END
