
 OpenBabel09222001523D

 50 58  0  0  1  0  0  0  0  0999 V2000
   -9.6840    5.5530   71.1510 O   0  0  0  0  0  0  0  0  0  0  0  0
   -9.4870    5.8790   69.9860 C   0  0  0  0  0  0  0  0  0  0  0  0
   -8.7120    5.1330   69.1620 N   0  0  0  0  0  0  0  0  0  0  0  0
   -8.6310    5.3190   67.7320 C   0  0  0  0  0  0  0  0  0  0  0  0
   -9.0670    6.6760   67.3040 C   0  0  0  0  0  0  0  0  0  0  0  0
   -9.7580    7.5040   68.1790 C   0  0  0  0  0  0  0  0  0  0  0  0
  -10.0070    7.0290   69.4750 N   0  0  0  0  0  0  0  0  0  0  0  0
  -10.1810    8.7750   67.7680 C   0  0  0  0  0  0  0  0  0  0  0  0
  -10.9560    9.6900   68.6600 C   0  0  0  0  0  0  0  0  0  0  0  0
  -11.3720   10.9850   68.0040 C   0  0  0  0  0  0  0  0  0  0  0  0
  -10.9290   11.2830   66.7610 C   0  0  0  0  0  0  0  0  0  0  0  0
  -10.1630   10.4210   65.9910 O   0  0  0  0  0  0  0  0  0  0  0  0
   -9.8630    9.1670   66.4730 C   0  0  0  0  0  0  0  0  0  0  0  0
   -9.2240    8.3720   65.5880 N   0  0  0  0  0  0  0  0  0  0  0  0
   -8.8640    7.1580   66.0290 C   0  0  0  0  0  0  0  0  0  0  0  0
   -8.2630    6.3970   65.0800 O   0  0  0  0  0  0  0  0  0  0  0  0
  -11.3580   12.4840   66.0180 C   0  0  0  0  0  0  0  0  0  0  0  0
  -12.5440   12.3060   65.3970 N   0  0  0  0  0  0  0  0  0  0  0  0
  -13.0830   13.2980   64.7490 N   0  0  0  0  0  0  0  0  0  0  0  0
  -12.5500   14.4900   64.7350 N   0  0  0  0  0  0  0  0  0  0  0  0
  -11.3750   14.7130   65.3270 C   0  0  0  0  0  0  0  0  0  0  0  0
  -10.6640   13.7010   65.9680 C   0  0  0  0  0  0  0  0  0  0  0  0
  -10.8610   16.0070   65.3090 C   0  0  0  0  0  0  0  0  0  0  0  0
   -9.3650   13.9960   66.4780 C   0  0  0  0  0  0  0  0  0  0  0  0
   -8.8480   15.3000   66.3940 C   0  0  0  0  0  0  0  0  0  0  0  0
   -9.6220   16.3250   65.8670 C   0  0  0  0  0  0  0  0  0  0  0  0
   -7.4710   15.6020   66.8060 C   0  0  0  0  0  0  0  0  0  0  0  0
   -9.2730   17.6470   65.8300 O   0  0  0  0  0  0  0  0  0  0  0  0
   -8.0920   18.0420   66.5400 C   0  0  0  0  0  0  0  0  0  0  0  0
   -6.9910   17.0110   66.5330 C   0  0  0  0  0  0  0  0  0  0  0  0
   -5.8110   17.2580   66.3350 O   0  0  0  0  0  0  0  0  0  0  0  0
   -6.7400   14.7600   67.3020 O   0  0  0  0  0  0  0  0  0  0  0  0
   -8.4140   18.4610   67.9410 C   0  0  0  0  0  0  0  0  0  0  0  0
   -7.8370   17.6630   69.0040 O   0  0  0  0  0  0  0  0  0  0  0  0
   -8.3670   19.8760   68.1430 O   0  0  0  0  0  0  0  0  0  0  0  0
   -9.5670   19.2830   68.3270 C   0  0  0  0  0  0  0  0  0  0  0  0
  -10.2500   19.2430   69.3170 O   0  0  0  0  0  0  0  0  0  0  0  0
  -12.2160   11.8510   68.6990 O   0  0  0  0  0  0  0  0  0  0  0  0
  -11.7390   12.3060   69.9690 C   0  0  0  0  0  0  0  0  0  0  0  0
  -11.2840   13.6590   69.9180 O   0  0  0  0  0  0  0  0  0  0  0  0
  -12.3220   14.6070   69.6440 C   0  0  0  0  0  0  0  0  0  0  0  0
  -13.3950   14.5860   70.7150 C   0  0  0  0  0  0  0  0  0  0  0  0
  -14.2660   15.4300   70.8560 O   0  0  0  0  0  0  0  0  0  0  0  0
  -13.3440   13.3690   71.6040 C   0  0  0  0  0  0  0  0  0  0  0  0
  -13.7250   13.4350   72.7630 O   0  0  0  0  0  0  0  0  0  0  0  0
  -12.7730   12.0880   71.0610 C   0  0  0  0  0  0  0  0  0  0  0  0
  -13.1410   11.0010   71.4770 O   0  0  0  0  0  0  0  0  0  0  0  0
  -11.6990   15.9680   69.5580 C   0  0  0  0  0  0  0  0  0  0  0  0
  -11.3580   16.5520   70.8180 O   0  0  0  0  0  0  0  0  0  0  0  0
  -10.3260   16.0450   69.9390 O   0  0  0  0  0  0  0  0  0  0  0  0
  1  2  2  0  0  0  0
  2  3  1  0  0  0  0
  2  7  1  0  0  0  0
  3  4  1  0  0  0  0
  4  5  1  0  0  0  0
  5  6  2  0  0  0  0
  5 15  1  0  0  0  0
  6  7  1  0  0  0  0
  6  8  1  0  0  0  0
  8  9  1  0  0  0  0
  8 13  2  0  0  0  0
  9 10  1  0  0  0  0
 10 11  2  0  0  0  0
 10 38  1  0  0  0  0
 11 12  1  0  0  0  0
 11 17  1  0  0  0  0
 12 13  1  0  0  0  0
 13 14  1  0  0  0  0
 14 15  2  0  0  0  0
 15 16  1  0  0  0  0
 17 18  2  0  0  0  0
 17 22  1  0  0  0  0
 18 19  1  0  0  0  0
 19 20  2  0  0  0  0
 20 21  1  0  0  0  0
 21 22  2  0  0  0  0
 21 23  1  0  0  0  0
 22 24  1  0  0  0  0
 23 26  2  0  0  0  0
 24 25  2  0  0  0  0
 25 26  1  0  0  0  0
 25 27  1  0  0  0  0
 26 28  1  0  0  0  0
 27 30  1  0  0  0  0
 27 32  2  0  0  0  0
 28 29  1  0  0  0  0
 29 30  1  0  0  0  0
 29 33  1  0  0  0  0
 30 31  2  0  0  0  0
 33 34  1  0  0  0  0
 33 35  1  0  0  0  0
 33 36  1  0  0  0  0
 35 36  1  0  0  0  0
 36 37  2  0  0  0  0
 38 39  1  0  0  0  0
 39 40  1  0  0  0  0
 39 46  1  0  0  0  0
 40 41  1  0  0  0  0
 41 48  1  0  0  0  0
 41 42  1  0  0  0  0
 42 43  2  0  0  0  0
 42 44  1  0  0  0  0
 44 45  2  0  0  0  0
 44 46  1  0  0  0  0
 46 47  2  0  0  0  0
 48 49  1  0  0  0  0
 48 50  1  0  0  0  0
 49 50  1  0  0  0  0
M  END
