
 OpenBabel11212020223D

 54 62  0  0  1  0  0  0  0  0999 V2000
  -11.2310   15.7150   67.1550 C   0  0  0  0  0  0  0  0  0  0  0  0
  -10.8870   16.7610   67.9460 C   0  0  0  0  0  0  0  0  0  0  0  0
  -11.2550   16.7970   69.3000 O   0  0  0  0  0  0  0  0  0  0  0  0
  -11.8660   15.7080   69.9110 C   0  0  0  0  0  0  0  0  0  0  0  0
  -12.1110   14.5830   69.2200 C   0  0  0  0  0  0  0  0  0  0  0  0
  -11.8980   14.4940   67.7420 C   0  0  0  0  0  0  0  0  0  0  0  0
  -12.6390   13.3420   69.8730 C   0  0  0  0  0  0  0  0  0  0  0  0
  -11.6070   12.3760   69.7850 O   0  0  0  0  0  0  0  0  0  0  0  0
  -11.8490   11.1580   70.3370 C   0  0  0  0  0  0  0  0  0  0  0  0
  -11.1860   10.1800   70.0320 O   0  0  0  0  0  0  0  0  0  0  0  0
  -12.8660   11.1150   71.2330 O   0  0  0  0  0  0  0  0  0  0  0  0
  -13.3580   12.2690   71.9390 C   0  0  0  0  0  0  0  0  0  0  0  0
  -12.8970   13.5430   71.3180 C   0  0  0  0  0  0  0  0  0  0  0  0
  -12.6830   14.7210   71.9480 C   0  0  0  0  0  0  0  0  0  0  0  0
  -12.1830   15.8120   71.2500 O   0  0  0  0  0  0  0  0  0  0  0  0
  -10.0120   17.9140   67.5130 C   0  0  0  0  0  0  0  0  0  0  0  0
  -10.5510   18.8620   66.6460 C   0  0  0  0  0  0  0  0  0  0  0  0
   -9.8050   19.8340   66.1170 N   0  0  0  0  0  0  0  0  0  0  0  0
  -10.3860   20.7070   65.2730 F   0  0  0  0  0  0  0  0  0  0  0  0
   -8.5110   19.9290   66.3290 N   0  0  0  0  0  0  0  0  0  0  0  0
   -7.8820   19.0390   67.1010 C   0  0  0  0  0  0  0  0  0  0  0  0
   -8.6140   18.0220   67.7640 C   0  0  0  0  0  0  0  0  0  0  0  0
   -6.4660   19.0830   67.2200 C   0  0  0  0  0  0  0  0  0  0  0  0
   -7.8970   17.1400   68.5980 C   0  0  0  0  0  0  0  0  0  0  0  0
   -6.5000   17.1440   68.6420 C   0  0  0  0  0  0  0  0  0  0  0  0
   -5.8320   15.9920   69.2510 C   0  0  0  0  0  0  0  0  0  0  0  0
   -5.7660   18.1080   67.9680 C   0  0  0  0  0  0  0  0  0  0  0  0
   -6.4600   15.1450   69.8710 O   0  0  0  0  0  0  0  0  0  0  0  0
   -4.4120   15.7910   68.8000 C   0  0  0  0  0  0  0  0  0  0  0  0
   -4.0220   14.6680   68.5210 O   0  0  0  0  0  0  0  0  0  0  0  0
   -3.6530   17.0800   68.5870 C   0  0  0  0  0  0  0  0  0  0  0  0
   -4.3970   18.1530   67.9810 O   0  0  0  0  0  0  0  0  0  0  0  0
   -3.0390   17.5410   69.8640 C   0  0  0  0  0  0  0  0  0  0  0  0
   -3.9000   18.2970   70.7510 O   0  0  0  0  0  0  0  0  0  0  0  0
   -2.1780   16.5930   70.4920 O   0  0  0  0  0  0  0  0  0  0  0  0
   -1.5980   17.7330   70.0560 C   0  0  0  0  0  0  0  0  0  0  0  0
   -1.0230   18.5960   70.6690 O   0  0  0  0  0  0  0  0  0  0  0  0
   -5.7210   20.1630   66.5240 C   0  0  0  0  0  0  0  0  0  0  0  0
   -5.4110   21.3630   67.0360 C   0  0  0  0  0  0  0  0  0  0  0  0
  -10.8920   15.6810   65.8080 O   0  0  0  0  0  0  0  0  0  0  0  0
  -10.5330   14.4050   65.2130 C   0  0  0  0  0  0  0  0  0  0  0  0
  -10.2210   13.4600   66.2220 O   0  0  0  0  0  0  0  0  0  0  0  0
   -9.8580   12.2290   65.7250 C   0  0  0  0  0  0  0  0  0  0  0  0
   -8.7640   11.5950   66.1630 C   0  0  0  0  0  0  0  0  0  0  0  0
  -10.7400   11.5610   64.7320 C   0  0  0  0  0  0  0  0  0  0  0  0
   -7.8820   12.1530   67.0570 O   0  0  0  0  0  0  0  0  0  0  0  0
  -11.8620   12.4590   64.2410 C   0  0  0  0  0  0  0  0  0  0  0  0
  -10.5800   10.4240   64.3290 O   0  0  0  0  0  0  0  0  0  0  0  0
  -11.7280   13.9640   64.3760 C   0  0  0  0  0  0  0  0  0  0  0  0
  -12.8900   11.9800   63.7930 O   0  0  0  0  0  0  0  0  0  0  0  0
  -12.5250   14.7400   63.8630 O   0  0  0  0  0  0  0  0  0  0  0  0
  -12.9750   14.9400   73.3830 C   0  0  0  0  0  0  0  0  0  0  0  0
  -11.9380   15.3660   74.2800 O   0  0  0  0  0  0  0  0  0  0  0  0
  -13.0120   16.2620   73.9320 O   0  0  0  0  0  0  0  0  0  0  0  0
  1 40  1  0  0  0  0
  1  2  2  0  0  0  0
  1  6  1  0  0  0  0
  2  3  1  0  0  0  0
  2 16  1  0  0  0  0
  3  4  1  0  0  0  0
  4  5  2  0  0  0  0
  4 15  1  0  0  0  0
  5  6  1  0  0  0  0
  5  7  1  0  0  0  0
  7  8  1  0  0  0  0
  7 13  1  0  0  0  0
  8  9  1  0  0  0  0
  9 10  2  0  0  0  0
  9 11  1  0  0  0  0
 11 12  1  0  0  0  0
 12 13  1  0  0  0  0
 13 14  2  0  0  0  0
 14 15  1  0  0  0  0
 14 52  1  0  0  0  0
 16 17  2  0  0  0  0
 16 22  1  0  0  0  0
 17 18  1  0  0  0  0
 18 19  1  0  0  0  0
 18 20  2  0  0  0  0
 20 21  1  0  0  0  0
 21 22  2  0  0  0  0
 21 23  1  0  0  0  0
 22 24  1  0  0  0  0
 23 27  2  0  0  0  0
 23 38  1  0  0  0  0
 24 25  2  0  0  0  0
 25 26  1  0  0  0  0
 25 27  1  0  0  0  0
 26 28  2  0  0  0  0
 26 29  1  0  0  0  0
 27 32  1  0  0  0  0
 29 30  2  0  0  0  0
 29 31  1  0  0  0  0
 31 32  1  0  0  0  0
 31 33  1  0  0  0  0
 33 34  1  0  0  0  0
 33 35  1  0  0  0  0
 33 36  1  0  0  0  0
 35 36  1  0  0  0  0
 36 37  2  0  0  0  0
 38 39  2  0  0  0  0
 40 41  1  0  0  0  0
 41 42  1  0  0  0  0
 41 49  1  0  0  0  0
 42 43  1  0  0  0  0
 43 44  2  0  0  0  0
 43 45  1  0  0  0  0
 44 46  1  0  0  0  0
 45 47  1  0  0  0  0
 45 48  2  0  0  0  0
 47 49  1  0  0  0  0
 47 50  2  0  0  0  0
 49 51  2  0  0  0  0
 52 53  1  0  0  0  0
 52 54  1  0  0  0  0
 53 54  1  0  0  0  0
M  CHG  2  15   1  18   1
M  END