
 OpenBabel11272001103D

 54 62  0  0  1  0  0  0  0  0999 V2000
  -11.0940   15.7240   67.3040 C   0  0  0  0  0  0  0  0  0  0  0  0
  -10.6230   16.7930   67.9870 C   0  0  0  0  0  0  0  0  0  0  0  0
  -10.7490   16.9330   69.3680 O   0  0  0  0  0  0  0  0  0  0  0  0
  -11.4320   15.9610   70.0880 C   0  0  0  0  0  0  0  0  0  0  0  0
  -11.9640   14.8770   69.5000 C   0  0  0  0  0  0  0  0  0  0  0  0
  -11.8210   14.6240   68.0380 C   0  0  0  0  0  0  0  0  0  0  0  0
  -12.7870   13.8910   70.2920 C   0  0  0  0  0  0  0  0  0  0  0  0
  -12.2330   12.5950   70.0850 O   0  0  0  0  0  0  0  0  0  0  0  0
  -12.6210   11.5440   70.8480 C   0  0  0  0  0  0  0  0  0  0  0  0
  -12.3480   10.3950   70.5240 O   0  0  0  0  0  0  0  0  0  0  0  0
  -13.2930   11.8130   71.9920 O   0  0  0  0  0  0  0  0  0  0  0  0
  -13.6070   13.1240   72.4420 C   0  0  0  0  0  0  0  0  0  0  0  0
  -12.8260   14.1670   71.7500 C   0  0  0  0  0  0  0  0  0  0  0  0
  -12.2200   15.2510   72.2880 C   0  0  0  0  0  0  0  0  0  0  0  0
  -11.5750   16.1430   71.4420 N   0  0  0  0  0  0  0  0  0  0  0  0
  -14.9780   13.3790   72.1790 O   0  0  0  0  0  0  0  0  0  0  0  0
   -9.9600   17.9330   67.3180 C   0  0  0  0  0  0  0  0  0  0  0  0
  -10.7560   18.6300   66.4700 N   0  0  0  0  0  0  0  0  0  0  0  0
  -10.2390   19.7440   65.9200 C   0  0  0  0  0  0  0  0  0  0  0  0
  -11.0220   20.4460   65.0890 F   0  0  0  0  0  0  0  0  0  0  0  0
   -8.9680   20.2180   66.1730 C   0  0  0  0  0  0  0  0  0  0  0  0
   -8.1480   19.5100   67.0560 C   0  0  0  0  0  0  0  0  0  0  0  0
   -8.6240   18.3090   67.6270 C   0  0  0  0  0  0  0  0  0  0  0  0
   -6.8750   19.9960   67.4140 C   0  0  0  0  0  0  0  0  0  0  0  0
   -7.7400   17.5920   68.4720 C   0  0  0  0  0  0  0  0  0  0  0  0
   -6.4850   18.1150   68.8300 C   0  0  0  0  0  0  0  0  0  0  0  0
   -5.6110   17.3660   69.7390 C   0  0  0  0  0  0  0  0  0  0  0  0
   -6.0630   19.3400   68.3410 C   0  0  0  0  0  0  0  0  0  0  0  0
   -5.9010   16.2450   70.1280 O   0  0  0  0  0  0  0  0  0  0  0  0
   -4.3270   18.0340   70.1730 C   0  0  0  0  0  0  0  0  0  0  0  0
   -3.4580   17.4060   70.7630 O   0  0  0  0  0  0  0  0  0  0  0  0
   -4.2580   19.5170   69.8950 C   0  0  0  0  0  0  0  0  0  0  0  0
   -4.8980   19.9610   68.6960 O   0  0  0  0  0  0  0  0  0  0  0  0
   -6.4450   21.1550   66.8860 F   0  0  0  0  0  0  0  0  0  0  0  0
   -4.7270   20.3040   71.0830 C   0  0  0  0  0  0  0  0  0  0  0  0
   -6.1590   20.3110   71.3240 O   0  0  0  0  0  0  0  0  0  0  0  0
   -3.9230   20.1410   72.2540 O   0  0  0  0  0  0  0  0  0  0  0  0
   -3.9550   21.3740   71.7070 C   0  0  0  0  0  0  0  0  0  0  0  0
   -4.2840   22.4230   72.2060 O   0  0  0  0  0  0  0  0  0  0  0  0
  -10.8910   15.6000   65.9290 O   0  0  0  0  0  0  0  0  0  0  0  0
  -10.6600   14.2810   65.4340 C   0  0  0  0  0  0  0  0  0  0  0  0
  -10.2960   13.4040   66.5090 O   0  0  0  0  0  0  0  0  0  0  0  0
   -9.9250   12.1320   66.1210 C   0  0  0  0  0  0  0  0  0  0  0  0
   -9.1520   11.3830   66.9070 C   0  0  0  0  0  0  0  0  0  0  0  0
  -10.4250   11.5400   64.8540 C   0  0  0  0  0  0  0  0  0  0  0  0
   -8.7030   11.8490   68.0880 F   0  0  0  0  0  0  0  0  0  0  0  0
  -11.6360   12.2690   64.3000 C   0  0  0  0  0  0  0  0  0  0  0  0
   -9.9090   10.5940   64.2880 O   0  0  0  0  0  0  0  0  0  0  0  0
  -11.8980   13.6810   64.7820 C   0  0  0  0  0  0  0  0  0  0  0  0
  -12.3820   11.7220   63.5050 O   0  0  0  0  0  0  0  0  0  0  0  0
  -12.9960   14.2010   64.6640 O   0  0  0  0  0  0  0  0  0  0  0  0
  -12.2070   15.5760   73.7330 C   0  0  0  0  0  0  0  0  0  0  0  0
  -12.1260   16.9340   74.1940 O   0  0  0  0  0  0  0  0  0  0  0  0
  -13.3350   16.1770   74.3930 O   0  0  0  0  0  0  0  0  0  0  0  0
  1 40  1  0  0  0  0
  1  2  2  0  0  0  0
  1  6  1  0  0  0  0
  2  3  1  0  0  0  0
  2 17  1  0  0  0  0
  3  4  1  0  0  0  0
  4  5  2  0  0  0  0
  4 15  1  0  0  0  0
  5  6  1  0  0  0  0
  5  7  1  0  0  0  0
  7  8  1  0  0  0  0
  7 13  1  0  0  0  0
  8  9  1  0  0  0  0
  9 10  2  0  0  0  0
  9 11  1  0  0  0  0
 11 12  1  0  0  0  0
 12 13  1  0  0  0  0
 12 16  1  0  0  0  0
 13 14  2  0  0  0  0
 14 15  1  0  0  0  0
 14 52  1  0  0  0  0
 17 18  2  0  0  0  0
 17 23  1  0  0  0  0
 18 19  1  0  0  0  0
 19 20  1  0  0  0  0
 19 21  2  0  0  0  0
 21 22  1  0  0  0  0
 22 23  2  0  0  0  0
 22 24  1  0  0  0  0
 23 25  1  0  0  0  0
 24 28  2  0  0  0  0
 24 34  1  0  0  0  0
 25 26  2  0  0  0  0
 26 27  1  0  0  0  0
 26 28  1  0  0  0  0
 27 29  2  0  0  0  0
 27 30  1  0  0  0  0
 28 33  1  0  0  0  0
 30 31  2  0  0  0  0
 30 32  1  0  0  0  0
 32 33  1  0  0  0  0
 32 35  1  0  0  0  0
 35 36  1  0  0  0  0
 35 37  1  0  0  0  0
 35 38  1  0  0  0  0
 37 38  1  0  0  0  0
 38 39  2  0  0  0  0
 40 41  1  0  0  0  0
 41 42  1  0  0  0  0
 41 49  1  0  0  0  0
 42 43  1  0  0  0  0
 43 44  2  0  0  0  0
 43 45  1  0  0  0  0
 44 46  1  0  0  0  0
 45 47  1  0  0  0  0
 45 48  2  0  0  0  0
 47 49  1  0  0  0  0
 47 50  2  0  0  0  0
 49 51  2  0  0  0  0
 52 53  1  0  0  0  0
 52 54  1  0  0  0  0
 53 54  1  0  0  0  0
M  END
