
 OpenBabel11222018093D

 55 63  0  0  1  0  0  0  0  0999 V2000
  -11.1000   15.9830   67.2150 C   0  0  0  0  0  0  0  0  0  0  0  0
  -10.6910   17.0570   67.9250 C   0  0  0  0  0  0  0  0  0  0  0  0
  -10.9150   17.1930   69.3020 O   0  0  0  0  0  0  0  0  0  0  0  0
  -11.5200   16.1470   70.0130 C   0  0  0  0  0  0  0  0  0  0  0  0
  -11.9200   15.0260   69.3890 C   0  0  0  0  0  0  0  0  0  0  0  0
  -11.8010   14.8410   67.9090 C   0  0  0  0  0  0  0  0  0  0  0  0
  -12.5410   13.8690   70.1210 C   0  0  0  0  0  0  0  0  0  0  0  0
  -11.6700   12.7620   69.9690 O   0  0  0  0  0  0  0  0  0  0  0  0
  -12.0590   11.5970   70.5510 C   0  0  0  0  0  0  0  0  0  0  0  0
  -11.5750   10.5270   70.2250 O   0  0  0  0  0  0  0  0  0  0  0  0
  -13.0200   11.7150   71.4990 O   0  0  0  0  0  0  0  0  0  0  0  0
  -13.2070   12.9170   72.2410 C   0  0  0  0  0  0  0  0  0  0  0  0
  -12.6270   14.1150   71.5740 C   0  0  0  0  0  0  0  0  0  0  0  0
  -12.2190   15.2670   72.1500 C   0  0  0  0  0  0  0  0  0  0  0  0
  -11.6870   16.2920   71.3750 O   0  0  0  0  0  0  0  0  0  0  0  0
  -14.5940   13.1910   72.3050 O   0  0  0  0  0  0  0  0  0  0  0  0
   -9.8990   18.1510   67.3100 C   0  0  0  0  0  0  0  0  0  0  0  0
  -10.5150   18.9210   66.3260 C   0  0  0  0  0  0  0  0  0  0  0  0
   -9.8610   19.9270   65.7330 N   0  0  0  0  0  0  0  0  0  0  0  0
  -10.4770   20.6280   64.7620 F   0  0  0  0  0  0  0  0  0  0  0  0
   -8.6240   20.2530   66.0470 N   0  0  0  0  0  0  0  0  0  0  0  0
   -7.9780   19.5720   66.9990 C   0  0  0  0  0  0  0  0  0  0  0  0
   -8.5750   18.4900   67.6750 C   0  0  0  0  0  0  0  0  0  0  0  0
   -6.6700   19.9410   67.3300 C   0  0  0  0  0  0  0  0  0  0  0  0
   -7.8140   17.8220   68.6630 C   0  0  0  0  0  0  0  0  0  0  0  0
   -6.4980   18.2200   68.9640 C   0  0  0  0  0  0  0  0  0  0  0  0
   -5.7180   17.4920   69.9640 C   0  0  0  0  0  0  0  0  0  0  0  0
   -5.9170   19.2870   68.3070 C   0  0  0  0  0  0  0  0  0  0  0  0
   -6.1980   16.5520   70.5750 O   0  0  0  0  0  0  0  0  0  0  0  0
   -4.2770   17.9060   70.1330 C   0  0  0  0  0  0  0  0  0  0  0  0
   -3.4480   17.0770   70.4740 O   0  0  0  0  0  0  0  0  0  0  0  0
   -3.9770   19.3400   69.7660 C   0  0  0  0  0  0  0  0  0  0  0  0
   -4.6610   19.7670   68.5610 O   0  0  0  0  0  0  0  0  0  0  0  0
   -6.1190   20.9790   66.6790 F   0  0  0  0  0  0  0  0  0  0  0  0
   -4.1590   20.3130   70.9260 C   0  0  0  0  0  0  0  0  0  0  0  0
   -3.5300   19.8750   72.1610 O   0  0  0  0  0  0  0  0  0  0  0  0
   -2.9960   20.9290   71.5480 C   0  0  0  0  0  0  0  0  0  0  0  0
   -1.8660   21.1410   71.1420 O   0  0  0  0  0  0  0  0  0  0  0  0
   -5.3970   21.0170   71.1430 N   0  0  0  0  0  0  0  0  0  0  0  0
   -6.2380   20.3840   71.7830 O   0  0  0  0  0  0  0  0  0  0  0  0
  -10.8090   15.8760   65.8570 O   0  0  0  0  0  0  0  0  0  0  0  0
  -10.6240   14.5550   65.2780 C   0  0  0  0  0  0  0  0  0  0  0  0
  -10.2310   13.6200   66.2650 O   0  0  0  0  0  0  0  0  0  0  0  0
  -10.1060   12.3000   65.8870 C   0  0  0  0  0  0  0  0  0  0  0  0
   -9.4060   11.4550   66.6540 C   0  0  0  0  0  0  0  0  0  0  0  0
  -10.7810   11.7500   64.6800 C   0  0  0  0  0  0  0  0  0  0  0  0
   -8.7830   11.8550   67.8090 O   0  0  0  0  0  0  0  0  0  0  0  0
  -11.7940   12.6810   64.0470 C   0  0  0  0  0  0  0  0  0  0  0  0
  -10.5650   10.6400   64.2260 O   0  0  0  0  0  0  0  0  0  0  0  0
  -11.8320   14.1310   64.4540 C   0  0  0  0  0  0  0  0  0  0  0  0
  -12.6060   12.2650   63.2380 O   0  0  0  0  0  0  0  0  0  0  0  0
  -12.7630   14.8670   64.1540 O   0  0  0  0  0  0  0  0  0  0  0  0
  -12.2840   15.5200   73.6080 C   0  0  0  0  0  0  0  0  0  0  0  0
  -12.1270   16.8470   74.1310 O   0  0  0  0  0  0  0  0  0  0  0  0
  -13.4160   16.2030   74.1760 O   0  0  0  0  0  0  0  0  0  0  0  0
  1 41  1  0  0  0  0
  1  2  2  0  0  0  0
  1  6  1  0  0  0  0
  2  3  1  0  0  0  0
  2 17  1  0  0  0  0
  3  4  1  0  0  0  0
  4  5  2  0  0  0  0
  4 15  1  0  0  0  0
  5  6  1  0  0  0  0
  5  7  1  0  0  0  0
  7  8  1  0  0  0  0
  7 13  1  0  0  0  0
  8  9  1  0  0  0  0
  9 10  2  0  0  0  0
  9 11  1  0  0  0  0
 11 12  1  0  0  0  0
 12 13  1  0  0  0  0
 12 16  1  0  0  0  0
 13 14  2  0  0  0  0
 14 15  1  0  0  0  0
 14 53  1  0  0  0  0
 17 18  2  0  0  0  0
 17 23  1  0  0  0  0
 18 19  1  0  0  0  0
 19 20  1  0  0  0  0
 19 21  2  0  0  0  0
 21 22  1  0  0  0  0
 22 23  2  0  0  0  0
 22 24  1  0  0  0  0
 23 25  1  0  0  0  0
 24 28  2  0  0  0  0
 24 34  1  0  0  0  0
 25 26  2  0  0  0  0
 26 27  1  0  0  0  0
 26 28  1  0  0  0  0
 27 29  2  0  0  0  0
 27 30  1  0  0  0  0
 28 33  1  0  0  0  0
 30 31  2  0  0  0  0
 30 32  1  0  0  0  0
 32 33  1  0  0  0  0
 32 35  1  0  0  0  0
 35 39  1  0  0  0  0
 35 36  1  0  0  0  0
 35 37  1  0  0  0  0
 36 37  1  0  0  0  0
 37 38  2  0  0  0  0
 39 40  2  0  0  0  0
 41 42  1  0  0  0  0
 42 43  1  0  0  0  0
 42 50  1  0  0  0  0
 43 44  1  0  0  0  0
 44 45  2  0  0  0  0
 44 46  1  0  0  0  0
 45 47  1  0  0  0  0
 46 48  1  0  0  0  0
 46 49  2  0  0  0  0
 48 50  1  0  0  0  0
 48 51  2  0  0  0  0
 50 52  2  0  0  0  0
 53 54  1  0  0  0  0
 53 55  1  0  0  0  0
 54 55  1  0  0  0  0
M  CHG  2  15   1  19   1
M  END