
 OpenBabel11212021523D

 54 62  0  0  1  0  0  0  0  0999 V2000
  -11.1050   15.6080   67.2460 C   0  0  0  0  0  0  0  0  0  0  0  0
  -10.5770   16.6510   67.9300 C   0  0  0  0  0  0  0  0  0  0  0  0
  -10.6810   16.7580   69.3250 O   0  0  0  0  0  0  0  0  0  0  0  0
  -11.3800   15.7800   70.0510 C   0  0  0  0  0  0  0  0  0  0  0  0
  -11.8500   14.6680   69.4530 C   0  0  0  0  0  0  0  0  0  0  0  0
  -11.7340   14.4420   67.9730 C   0  0  0  0  0  0  0  0  0  0  0  0
  -12.5990   13.6050   70.2140 C   0  0  0  0  0  0  0  0  0  0  0  0
  -11.8670   12.3940   70.1430 O   0  0  0  0  0  0  0  0  0  0  0  0
  -12.4800   11.3190   70.7200 C   0  0  0  0  0  0  0  0  0  0  0  0
  -12.1530   10.1740   70.4650 O   0  0  0  0  0  0  0  0  0  0  0  0
  -13.5030   11.6330   71.5560 O   0  0  0  0  0  0  0  0  0  0  0  0
  -13.3750   12.7900   72.3710 C   0  0  0  0  0  0  0  0  0  0  0  0
  -12.7070   13.9170   71.6560 C   0  0  0  0  0  0  0  0  0  0  0  0
  -12.2390   15.0650   72.1970 C   0  0  0  0  0  0  0  0  0  0  0  0
  -11.5780   15.9950   71.4000 O   0  0  0  0  0  0  0  0  0  0  0  0
  -14.6640   13.2710   72.6910 O   0  0  0  0  0  0  0  0  0  0  0  0
   -9.8140   17.7600   67.2710 C   0  0  0  0  0  0  0  0  0  0  0  0
  -10.5350   18.6960   66.5180 C   0  0  0  0  0  0  0  0  0  0  0  0
   -9.9260   19.7370   65.9330 N   0  0  0  0  0  0  0  0  0  0  0  0
  -10.6530   20.6070   65.2040 F   0  0  0  0  0  0  0  0  0  0  0  0
   -8.6310   19.9490   66.0310 N   0  0  0  0  0  0  0  0  0  0  0  0
   -7.8860   19.0830   66.7480 C   0  0  0  0  0  0  0  0  0  0  0  0
   -6.1090   19.5470   66.7350 P   0  0  0  0  0  0  0  0  0  0  0  0
   -8.4140   17.9460   67.3920 C   0  0  0  0  0  0  0  0  0  0  0  0
   -5.4550   18.3780   67.9360 C   0  0  0  0  0  0  0  0  0  0  0  0
   -5.7220   18.7560   65.4270 F   0  0  0  0  0  0  0  0  0  0  0  0
   -6.1940   17.2850   68.3800 C   0  0  0  0  0  0  0  0  0  0  0  0
   -4.1820   18.6030   68.4180 O   0  0  0  0  0  0  0  0  0  0  0  0
   -7.5720   17.0680   68.1220 C   0  0  0  0  0  0  0  0  0  0  0  0
   -5.5080   16.3500   69.2820 C   0  0  0  0  0  0  0  0  0  0  0  0
   -5.8630   15.1860   69.3550 O   0  0  0  0  0  0  0  0  0  0  0  0
   -4.4670   16.9550   70.2030 C   0  0  0  0  0  0  0  0  0  0  0  0
   -4.2090   16.4210   71.2720 O   0  0  0  0  0  0  0  0  0  0  0  0
   -4.0460   18.3600   69.8350 C   0  0  0  0  0  0  0  0  0  0  0  0
   -4.7750   19.4090   70.6350 C   0  0  0  0  0  0  0  0  0  0  0  0
   -6.2130   19.4280   70.4760 O   0  0  0  0  0  0  0  0  0  0  0  0
   -4.3090   19.5270   71.9890 O   0  0  0  0  0  0  0  0  0  0  0  0
   -4.1910   20.6260   71.2080 C   0  0  0  0  0  0  0  0  0  0  0  0
   -4.6510   21.7230   71.3930 O   0  0  0  0  0  0  0  0  0  0  0  0
  -11.0150   15.5530   65.8680 O   0  0  0  0  0  0  0  0  0  0  0  0
  -10.5090   14.3470   65.2220 C   0  0  0  0  0  0  0  0  0  0  0  0
  -10.1060   13.3630   66.1750 O   0  0  0  0  0  0  0  0  0  0  0  0
   -9.8410   12.1260   65.5890 C   0  0  0  0  0  0  0  0  0  0  0  0
   -8.7330   11.4300   65.8630 C   0  0  0  0  0  0  0  0  0  0  0  0
  -10.8270   11.5360   64.6390 C   0  0  0  0  0  0  0  0  0  0  0  0
   -7.7470   11.8880   66.6990 O   0  0  0  0  0  0  0  0  0  0  0  0
  -11.9930   12.4680   64.4270 C   0  0  0  0  0  0  0  0  0  0  0  0
  -10.7000   10.4880   64.0390 O   0  0  0  0  0  0  0  0  0  0  0  0
  -11.6850   13.9360   64.3480 C   0  0  0  0  0  0  0  0  0  0  0  0
  -13.1490   12.0890   64.4790 O   0  0  0  0  0  0  0  0  0  0  0  0
  -12.3550   14.7010   63.6690 O   0  0  0  0  0  0  0  0  0  0  0  0
  -12.3870   15.4380   73.6290 C   0  0  0  0  0  0  0  0  0  0  0  0
  -11.9620   16.7350   74.0850 O   0  0  0  0  0  0  0  0  0  0  0  0
  -13.3640   16.4160   74.0210 O   0  0  0  0  0  0  0  0  0  0  0  0
  1 40  1  0  0  0  0
  1  2  2  0  0  0  0
  1  6  1  0  0  0  0
  2  3  1  0  0  0  0
  2 17  1  0  0  0  0
  3  4  1  0  0  0  0
  4  5  2  0  0  0  0
  4 15  1  0  0  0  0
  5  6  1  0  0  0  0
  5  7  1  0  0  0  0
  7  8  1  0  0  0  0
  7 13  1  0  0  0  0
  8  9  1  0  0  0  0
  9 10  2  0  0  0  0
  9 11  1  0  0  0  0
 11 12  1  0  0  0  0
 12 13  1  0  0  0  0
 12 16  1  0  0  0  0
 13 14  2  0  0  0  0
 14 15  1  0  0  0  0
 14 52  1  0  0  0  0
 17 18  2  0  0  0  0
 17 24  1  0  0  0  0
 18 19  1  0  0  0  0
 19 20  1  0  0  0  0
 19 21  2  0  0  0  0
 21 22  1  0  0  0  0
 22 23  2  0  0  0  0
 22 24  1  0  0  0  0
 23 25  1  0  0  0  0
 23 26  1  0  0  0  0
 24 29  2  0  0  0  0
 25 27  2  0  0  0  0
 25 28  1  0  0  0  0
 27 29  1  0  0  0  0
 27 30  1  0  0  0  0
 28 34  1  0  0  0  0
 30 31  2  0  0  0  0
 30 32  1  0  0  0  0
 32 33  2  0  0  0  0
 32 34  1  0  0  0  0
 34 35  1  0  0  0  0
 35 36  1  0  0  0  0
 35 37  1  0  0  0  0
 35 38  1  0  0  0  0
 37 38  1  0  0  0  0
 38 39  2  0  0  0  0
 40 41  1  0  0  0  0
 41 42  1  0  0  0  0
 41 49  1  0  0  0  0
 42 43  1  0  0  0  0
 43 44  2  0  0  0  0
 43 45  1  0  0  0  0
 44 46  1  0  0  0  0
 45 47  1  0  0  0  0
 45 48  2  0  0  0  0
 47 49  1  0  0  0  0
 47 50  2  0  0  0  0
 49 51  2  0  0  0  0
 52 53  1  0  0  0  0
 52 54  1  0  0  0  0
 53 54  1  0  0  0  0
M  CHG  3  15   1  19   1  23   1
M  END