
 OpenBabel11262001443D

 54 62  0  0  1  0  0  0  0  0999 V2000
  -10.7600   15.6600   67.0720 C   0  0  0  0  0  0  0  0  0  0  0  0
  -10.4310   16.7880   67.7470 C   0  0  0  0  0  0  0  0  0  0  0  0
  -10.7850   16.9820   69.1080 O   0  0  0  0  0  0  0  0  0  0  0  0
  -11.4500   15.9460   69.8250 C   0  0  0  0  0  0  0  0  0  0  0  0
  -11.8510   14.8320   69.1810 C   0  0  0  0  0  0  0  0  0  0  0  0
  -11.6300   14.6130   67.7210 C   0  0  0  0  0  0  0  0  0  0  0  0
  -12.5740   13.6970   69.8670 C   0  0  0  0  0  0  0  0  0  0  0  0
  -11.7830   12.5300   69.7420 O   0  0  0  0  0  0  0  0  0  0  0  0
  -12.2500   11.4410   70.3960 C   0  0  0  0  0  0  0  0  0  0  0  0
  -11.8300   10.2820   70.0580 N   0  0  0  0  0  0  0  0  0  0  0  0
  -13.1370   11.5970   71.3930 O   0  0  0  0  0  0  0  0  0  0  0  0
  -13.3740   12.8090   71.9520 C   0  0  0  0  0  0  0  0  0  0  0  0
  -14.1140   13.0000   72.8900 O   0  0  0  0  0  0  0  0  0  0  0  0
  -12.7210   13.9460   71.3000 C   0  0  0  0  0  0  0  0  0  0  0  0
  -12.3110   15.0700   71.9260 C   0  0  0  0  0  0  0  0  0  0  0  0
  -11.6880   16.0860   71.1940 O   0  0  0  0  0  0  0  0  0  0  0  0
   -9.6490   17.8950   67.0900 C   0  0  0  0  0  0  0  0  0  0  0  0
  -10.3280   18.8370   66.3050 C   0  0  0  0  0  0  0  0  0  0  0  0
   -9.6680   19.8750   65.7790 N   0  0  0  0  0  0  0  0  0  0  0  0
  -10.3240   20.7460   64.9840 F   0  0  0  0  0  0  0  0  0  0  0  0
   -8.3970   20.0980   66.0310 N   0  0  0  0  0  0  0  0  0  0  0  0
   -7.7180   19.2400   66.8140 C   0  0  0  0  0  0  0  0  0  0  0  0
   -8.3000   18.0770   67.3130 N   0  0  0  0  0  0  0  0  0  0  0  0
   -6.3750   19.5500   67.1580 C   0  0  0  0  0  0  0  0  0  0  0  0
   -7.5200   17.1790   67.9820 C   0  0  0  0  0  0  0  0  0  0  0  0
   -6.1920   17.4500   68.2830 C   0  0  0  0  0  0  0  0  0  0  0  0
   -5.3870   16.4560   68.9790 C   0  0  0  0  0  0  0  0  0  0  0  0
   -5.6300   18.6530   67.9300 C   0  0  0  0  0  0  0  0  0  0  0  0
   -5.8260   15.3200   69.0610 O   0  0  0  0  0  0  0  0  0  0  0  0
   -4.0480   16.9120   69.5240 C   0  0  0  0  0  0  0  0  0  0  0  0
   -3.2290   16.0950   69.9090 O   0  0  0  0  0  0  0  0  0  0  0  0
   -3.8830   18.4180   69.5450 C   0  0  0  0  0  0  0  0  0  0  0  0
   -4.3680   19.0240   68.3180 O   0  0  0  0  0  0  0  0  0  0  0  0
   -5.6970   20.6450   66.5800 N   0  0  0  0  0  0  0  0  0  0  0  0
   -4.5700   19.0270   70.7440 C   0  0  0  0  0  0  0  0  0  0  0  0
   -5.1350   18.1080   71.7140 O   0  0  0  0  0  0  0  0  0  0  0  0
   -3.9060   20.1520   71.3140 O   0  0  0  0  0  0  0  0  0  0  0  0
   -5.1780   20.4200   70.7170 C   0  0  0  0  0  0  0  0  0  0  0  0
   -6.2500   20.6250   71.6530 O   0  0  0  0  0  0  0  0  0  0  0  0
  -10.2850   15.4050   65.7830 O   0  0  0  0  0  0  0  0  0  0  0  0
   -9.9180   14.0140   65.4780 C   0  0  0  0  0  0  0  0  0  0  0  0
   -9.9560   13.2600   66.6880 O   0  0  0  0  0  0  0  0  0  0  0  0
   -9.6900   11.9130   66.5220 C   0  0  0  0  0  0  0  0  0  0  0  0
   -9.0050   11.2400   67.4540 C   0  0  0  0  0  0  0  0  0  0  0  0
  -10.1150   11.1720   65.2880 C   0  0  0  0  0  0  0  0  0  0  0  0
   -8.4930   11.8350   68.5800 O   0  0  0  0  0  0  0  0  0  0  0  0
  -10.4630   12.0140   64.0820 C   0  0  0  0  0  0  0  0  0  0  0  0
  -10.0520    9.9470   65.2380 O   0  0  0  0  0  0  0  0  0  0  0  0
  -10.8850   13.4270   64.4520 C   0  0  0  0  0  0  0  0  0  0  0  0
  -11.4300   11.4610   63.2990 F   0  0  0  0  0  0  0  0  0  0  0  0
  -12.1310   13.4280   65.0130 F   0  0  0  0  0  0  0  0  0  0  0  0
  -12.4150   15.2820   73.3930 C   0  0  0  0  0  0  0  0  0  0  0  0
  -12.0730   16.5500   73.9700 O   0  0  0  0  0  0  0  0  0  0  0  0
  -13.4500   16.1270   73.9270 O   0  0  0  0  0  0  0  0  0  0  0  0
  1 40  1  0  0  0  0
  1  2  2  0  0  0  0
  1  6  1  0  0  0  0
  2  3  1  0  0  0  0
  2 17  1  0  0  0  0
  3  4  1  0  0  0  0
  4  5  2  0  0  0  0
  4 16  1  0  0  0  0
  5  6  1  0  0  0  0
  5  7  1  0  0  0  0
  7  8  1  0  0  0  0
  7 14  1  0  0  0  0
  8  9  1  0  0  0  0
  9 10  2  0  0  0  0
  9 11  1  0  0  0  0
 11 12  1  0  0  0  0
 12 13  2  0  0  0  0
 12 14  1  0  0  0  0
 14 15  2  0  0  0  0
 15 16  1  0  0  0  0
 15 52  1  0  0  0  0
 17 18  2  0  0  0  0
 17 23  1  0  0  0  0
 18 19  1  0  0  0  0
 19 20  1  0  0  0  0
 19 21  2  0  0  0  0
 21 22  1  0  0  0  0
 22 23  2  0  0  0  0
 22 24  1  0  0  0  0
 23 25  1  0  0  0  0
 24 28  2  0  0  0  0
 24 34  1  0  0  0  0
 25 26  2  0  0  0  0
 26 27  1  0  0  0  0
 26 28  1  0  0  0  0
 27 29  2  0  0  0  0
 27 30  1  0  0  0  0
 28 33  1  0  0  0  0
 30 31  2  0  0  0  0
 30 32  1  0  0  0  0
 32 33  1  0  0  0  0
 32 35  1  0  0  0  0
 35 36  1  0  0  0  0
 35 37  1  0  0  0  0
 35 38  1  0  0  0  0
 37 38  1  0  0  0  0
 38 39  1  0  0  0  0
 40 41  1  0  0  0  0
 41 42  1  0  0  0  0
 41 49  1  0  0  0  0
 42 43  1  0  0  0  0
 43 44  2  0  0  0  0
 43 45  1  0  0  0  0
 44 46  1  0  0  0  0
 45 47  1  0  0  0  0
 45 48  2  0  0  0  0
 47 49  1  0  0  0  0
 47 50  1  0  0  0  0
 49 51  1  0  0  0  0
 52 53  1  0  0  0  0
 52 54  1  0  0  0  0
 53 54  1  0  0  0  0
M  CHG  3  16   1  19   1  23   1
M  END