
 OpenBabel11212020293D

 53 61  0  0  1  0  0  0  0  0999 V2000
  -10.8610   15.4650   67.4210 C   0  0  0  0  0  0  0  0  0  0  0  0
  -10.4760   16.6690   67.9720 C   0  0  0  0  0  0  0  0  0  0  0  0
  -10.8330   16.9670   69.3210 O   0  0  0  0  0  0  0  0  0  0  0  0
  -11.5800   16.0920   70.1190 C   0  0  0  0  0  0  0  0  0  0  0  0
  -11.9810   14.9120   69.6350 C   0  0  0  0  0  0  0  0  0  0  0  0
  -11.6720   14.4840   68.2450 C   0  0  0  0  0  0  0  0  0  0  0  0
  -12.8010   13.9420   70.4240 C   0  0  0  0  0  0  0  0  0  0  0  0
  -12.0490   12.7550   70.5810 O   0  0  0  0  0  0  0  0  0  0  0  0
  -12.7110   11.7180   71.1590 C   0  0  0  0  0  0  0  0  0  0  0  0
  -12.3780   10.5580   70.9780 O   0  0  0  0  0  0  0  0  0  0  0  0
  -13.7640   12.0760   71.9350 O   0  0  0  0  0  0  0  0  0  0  0  0
  -13.8950   13.3890   72.5170 C   0  0  0  0  0  0  0  0  0  0  0  0
  -13.0900   14.4260   71.7900 C   0  0  0  0  0  0  0  0  0  0  0  0
  -12.6470   15.6240   72.2500 C   0  0  0  0  0  0  0  0  0  0  0  0
  -11.8990   16.4670   71.4170 O   0  0  0  0  0  0  0  0  0  0  0  0
   -9.6800   17.8230   67.3210 C   0  0  0  0  0  0  0  0  0  0  0  0
  -10.2770   18.4800   66.3130 N   0  0  0  0  0  0  0  0  0  0  0  0
   -9.8890   19.7510   66.0690 C   0  0  0  0  0  0  0  0  0  0  0  0
  -10.7530   20.5150   65.3830 F   0  0  0  0  0  0  0  0  0  0  0  0
   -8.8490   20.3590   66.6210 N   0  0  0  0  0  0  0  0  0  0  0  0
   -8.0620   19.5980   67.3820 C   0  0  0  0  0  0  0  0  0  0  0  0
   -8.4310   18.2810   67.7450 C   0  0  0  0  0  0  0  0  0  0  0  0
   -6.8010   20.0940   67.7730 C   0  0  0  0  0  0  0  0  0  0  0  0
   -7.4920   17.4810   68.3940 C   0  0  0  0  0  0  0  0  0  0  0  0
   -6.2630   17.9960   68.7780 C   0  0  0  0  0  0  0  0  0  0  0  0
   -5.2520   17.0800   69.2840 C   0  0  0  0  0  0  0  0  0  0  0  0
   -5.9490   19.3220   68.5760 C   0  0  0  0  0  0  0  0  0  0  0  0
   -5.4060   15.8710   69.1680 O   0  0  0  0  0  0  0  0  0  0  0  0
   -4.0300   17.7050   69.9090 C   0  0  0  0  0  0  0  0  0  0  0  0
   -3.1060   16.9910   70.2660 O   0  0  0  0  0  0  0  0  0  0  0  0
   -4.0980   19.2100   70.0820 C   0  0  0  0  0  0  0  0  0  0  0  0
   -4.7930   19.8940   69.0260 O   0  0  0  0  0  0  0  0  0  0  0  0
   -6.4350   21.4300   67.4760 N   0  0  0  0  0  0  0  0  0  0  0  0
   -4.6000   19.6160   71.4410 C   0  0  0  0  0  0  0  0  0  0  0  0
   -5.5220   18.7090   72.1050 O   0  0  0  0  0  0  0  0  0  0  0  0
   -3.6290   20.1660   72.3290 O   0  0  0  0  0  0  0  0  0  0  0  0
   -4.5820   21.0240   71.8660 C   0  0  0  0  0  0  0  0  0  0  0  0
   -4.4740   22.0460   71.2880 O   0  0  0  0  0  0  0  0  0  0  0  0
  -10.6840   14.8880   66.1670 O   0  0  0  0  0  0  0  0  0  0  0  0
  -10.1500   13.5970   65.9610 C   0  0  0  0  0  0  0  0  0  0  0  0
   -8.7820   13.4470   66.3120 O   0  0  0  0  0  0  0  0  0  0  0  0
   -8.5020   12.5740   67.3380 C   0  0  0  0  0  0  0  0  0  0  0  0
   -7.2600   12.4940   67.8420 C   0  0  0  0  0  0  0  0  0  0  0  0
   -9.5440   11.7240   67.9820 C   0  0  0  0  0  0  0  0  0  0  0  0
   -6.1540   13.1370   67.3480 O   0  0  0  0  0  0  0  0  0  0  0  0
  -10.8250   11.5450   67.1990 C   0  0  0  0  0  0  0  0  0  0  0  0
   -9.4230   11.2310   69.0910 O   0  0  0  0  0  0  0  0  0  0  0  0
  -11.0900   12.4220   66.0330 C   0  0  0  0  0  0  0  0  0  0  0  0
  -11.6710   10.7290   67.5250 O   0  0  0  0  0  0  0  0  0  0  0  0
  -11.9340   12.1740   65.1820 O   0  0  0  0  0  0  0  0  0  0  0  0
  -12.9510   16.1200   73.6210 C   0  0  0  0  0  0  0  0  0  0  0  0
  -12.3020   15.5380   74.7600 O   0  0  0  0  0  0  0  0  0  0  0  0
  -12.0180   16.8990   74.3910 O   0  0  0  0  0  0  0  0  0  0  0  0
  1 39  1  0  0  0  0
  1  2  2  0  0  0  0
  1  6  1  0  0  0  0
  2  3  1  0  0  0  0
  2 16  1  0  0  0  0
  3  4  1  0  0  0  0
  4  5  2  0  0  0  0
  4 15  1  0  0  0  0
  5  6  1  0  0  0  0
  5  7  1  0  0  0  0
  7  8  1  0  0  0  0
  7 13  1  0  0  0  0
  8  9  1  0  0  0  0
  9 10  2  0  0  0  0
  9 11  1  0  0  0  0
 11 12  1  0  0  0  0
 12 13  1  0  0  0  0
 13 14  2  0  0  0  0
 14 15  1  0  0  0  0
 14 51  1  0  0  0  0
 16 17  2  0  0  0  0
 16 22  1  0  0  0  0
 17 18  1  0  0  0  0
 18 19  1  0  0  0  0
 18 20  2  0  0  0  0
 20 21  1  0  0  0  0
 21 22  2  0  0  0  0
 21 23  1  0  0  0  0
 22 24  1  0  0  0  0
 23 27  2  0  0  0  0
 23 33  1  0  0  0  0
 24 25  2  0  0  0  0
 25 26  1  0  0  0  0
 25 27  1  0  0  0  0
 26 28  2  0  0  0  0
 26 29  1  0  0  0  0
 27 32  1  0  0  0  0
 29 30  2  0  0  0  0
 29 31  1  0  0  0  0
 31 32  1  0  0  0  0
 31 34  1  0  0  0  0
 34 35  1  0  0  0  0
 34 36  1  0  0  0  0
 34 37  1  0  0  0  0
 36 37  1  0  0  0  0
 37 38  2  0  0  0  0
 39 40  1  0  0  0  0
 40 41  1  0  0  0  0
 40 48  1  0  0  0  0
 41 42  1  0  0  0  0
 42 43  2  0  0  0  0
 42 44  1  0  0  0  0
 43 45  1  0  0  0  0
 44 46  1  0  0  0  0
 44 47  2  0  0  0  0
 46 48  1  0  0  0  0
 46 49  2  0  0  0  0
 48 50  2  0  0  0  0
 51 52  1  0  0  0  0
 51 53  1  0  0  0  0
 52 53  1  0  0  0  0
M  CHG  1  15   1
M  END