
 OpenBabel11212020543D

 54 62  0  0  1  0  0  0  0  0999 V2000
  -11.1160   15.8350   67.3800 C   0  0  0  0  0  0  0  0  0  0  0  0
  -10.6280   16.8860   68.0840 C   0  0  0  0  0  0  0  0  0  0  0  0
  -10.7590   16.9570   69.4850 O   0  0  0  0  0  0  0  0  0  0  0  0
  -11.3950   15.9360   70.1990 C   0  0  0  0  0  0  0  0  0  0  0  0
  -11.8280   14.8330   69.5730 C   0  0  0  0  0  0  0  0  0  0  0  0
  -11.7030   14.6510   68.1020 C   0  0  0  0  0  0  0  0  0  0  0  0
  -12.5370   13.7210   70.2870 C   0  0  0  0  0  0  0  0  0  0  0  0
  -11.7180   12.5700   70.2390 O   0  0  0  0  0  0  0  0  0  0  0  0
  -12.2430   11.4510   70.8080 C   0  0  0  0  0  0  0  0  0  0  0  0
  -11.8080   10.3390   70.5590 O   0  0  0  0  0  0  0  0  0  0  0  0
  -13.2890   11.6590   71.6480 O   0  0  0  0  0  0  0  0  0  0  0  0
  -13.4500   12.8850   72.3550 C   0  0  0  0  0  0  0  0  0  0  0  0
  -12.7200   14.0160   71.7220 C   0  0  0  0  0  0  0  0  0  0  0  0
  -12.2630   15.1460   72.3080 C   0  0  0  0  0  0  0  0  0  0  0  0
  -11.5710   16.0940   71.5580 O   0  0  0  0  0  0  0  0  0  0  0  0
  -14.8100   13.2620   72.3090 O   0  0  0  0  0  0  0  0  0  0  0  0
   -9.9140   18.0500   67.4530 C   0  0  0  0  0  0  0  0  0  0  0  0
  -10.6360   18.7490   66.5520 N   0  0  0  0  0  0  0  0  0  0  0  0
  -10.0810   19.7690   65.9130 N   0  0  0  0  0  0  0  0  0  0  0  0
  -10.8080   20.4110   64.9780 F   0  0  0  0  0  0  0  0  0  0  0  0
   -8.8350   20.1850   66.1640 C   0  0  0  0  0  0  0  0  0  0  0  0
   -8.0360   19.5180   67.0870 C   0  0  0  0  0  0  0  0  0  0  0  0
   -8.5690   18.3950   67.7450 C   0  0  0  0  0  0  0  0  0  0  0  0
   -6.7200   19.9510   67.3580 C   0  0  0  0  0  0  0  0  0  0  0  0
   -7.6960   17.7040   68.6180 C   0  0  0  0  0  0  0  0  0  0  0  0
   -6.3870   18.1460   68.8680 C   0  0  0  0  0  0  0  0  0  0  0  0
   -5.5540   17.4070   69.8170 C   0  0  0  0  0  0  0  0  0  0  0  0
   -5.8940   19.2910   68.2690 C   0  0  0  0  0  0  0  0  0  0  0  0
   -5.9970   16.4380   70.4150 O   0  0  0  0  0  0  0  0  0  0  0  0
   -4.1590   17.9380   70.0290 C   0  0  0  0  0  0  0  0  0  0  0  0
   -3.2570   17.1840   70.3550 O   0  0  0  0  0  0  0  0  0  0  0  0
   -4.0390   19.4260   69.7890 C   0  0  0  0  0  0  0  0  0  0  0  0
   -4.6750   19.8380   68.5560 O   0  0  0  0  0  0  0  0  0  0  0  0
   -6.2680   21.0510   66.7380 F   0  0  0  0  0  0  0  0  0  0  0  0
   -4.4980   20.2250   70.9890 C   0  0  0  0  0  0  0  0  0  0  0  0
   -5.8890   20.5990   71.0080 O   0  0  0  0  0  0  0  0  0  0  0  0
   -3.9520   19.8270   72.2570 O   0  0  0  0  0  0  0  0  0  0  0  0
   -3.6300   21.0420   71.8130 C   0  0  0  0  0  0  0  0  0  0  0  0
   -2.5600   21.5920   71.5930 O   0  0  0  0  0  0  0  0  0  0  0  0
  -11.1050   15.8130   65.9890 O   0  0  0  0  0  0  0  0  0  0  0  0
  -10.6540   14.6150   65.2980 C   0  0  0  0  0  0  0  0  0  0  0  0
  -10.2900   13.5980   66.2120 O   0  0  0  0  0  0  0  0  0  0  0  0
   -9.9130   12.4140   65.6350 C   0  0  0  0  0  0  0  0  0  0  0  0
   -8.8500   11.7300   66.0770 C   0  0  0  0  0  0  0  0  0  0  0  0
  -10.7830   11.8340   64.5760 C   0  0  0  0  0  0  0  0  0  0  0  0
   -8.0110   12.2010   67.0600 O   0  0  0  0  0  0  0  0  0  0  0  0
  -11.9600   12.6830   64.1540 C   0  0  0  0  0  0  0  0  0  0  0  0
  -10.5750   10.7100   64.1270 O   0  0  0  0  0  0  0  0  0  0  0  0
  -11.7830   14.1740   64.3640 C   0  0  0  0  0  0  0  0  0  0  0  0
  -13.1010   12.2610   64.7770 F   0  0  0  0  0  0  0  0  0  0  0  0
  -12.5320   15.0050   63.8340 O   0  0  0  0  0  0  0  0  0  0  0  0
  -12.4890   15.4810   73.7360 C   0  0  0  0  0  0  0  0  0  0  0  0
  -12.1560   16.7860   74.2430 O   0  0  0  0  0  0  0  0  0  0  0  0
  -13.5340   16.3870   74.1190 O   0  0  0  0  0  0  0  0  0  0  0  0
  1 40  1  0  0  0  0
  1  2  2  0  0  0  0
  1  6  1  0  0  0  0
  2  3  1  0  0  0  0
  2 17  1  0  0  0  0
  3  4  1  0  0  0  0
  4  5  2  0  0  0  0
  4 15  1  0  0  0  0
  5  6  1  0  0  0  0
  5  7  1  0  0  0  0
  7  8  1  0  0  0  0
  7 13  1  0  0  0  0
  8  9  1  0  0  0  0
  9 10  2  0  0  0  0
  9 11  1  0  0  0  0
 11 12  1  0  0  0  0
 12 13  1  0  0  0  0
 12 16  1  0  0  0  0
 13 14  2  0  0  0  0
 14 15  1  0  0  0  0
 14 52  1  0  0  0  0
 17 18  2  0  0  0  0
 17 23  1  0  0  0  0
 18 19  1  0  0  0  0
 19 20  1  0  0  0  0
 19 21  2  0  0  0  0
 21 22  1  0  0  0  0
 22 23  2  0  0  0  0
 22 24  1  0  0  0  0
 23 25  1  0  0  0  0
 24 28  2  0  0  0  0
 24 34  1  0  0  0  0
 25 26  2  0  0  0  0
 26 27  1  0  0  0  0
 26 28  1  0  0  0  0
 27 29  2  0  0  0  0
 27 30  1  0  0  0  0
 28 33  1  0  0  0  0
 30 31  2  0  0  0  0
 30 32  1  0  0  0  0
 32 33  1  0  0  0  0
 32 35  1  0  0  0  0
 35 36  1  0  0  0  0
 35 37  1  0  0  0  0
 35 38  1  0  0  0  0
 37 38  1  0  0  0  0
 38 39  2  0  0  0  0
 40 41  1  0  0  0  0
 41 42  1  0  0  0  0
 41 49  1  0  0  0  0
 42 43  1  0  0  0  0
 43 44  2  0  0  0  0
 43 45  1  0  0  0  0
 44 46  1  0  0  0  0
 45 47  1  0  0  0  0
 45 48  2  0  0  0  0
 47 49  1  0  0  0  0
 47 50  1  0  0  0  0
 49 51  2  0  0  0  0
 52 53  1  0  0  0  0
 52 54  1  0  0  0  0
 53 54  1  0  0  0  0
M  CHG  2  15   1  19   1
M  END