
 OpenBabel11252023363D

 53 61  0  0  1  0  0  0  0  0999 V2000
  -11.0530   15.6660   67.1670 C   0  0  0  0  0  0  0  0  0  0  0  0
  -10.6970   16.7440   67.8910 C   0  0  0  0  0  0  0  0  0  0  0  0
  -10.9720   16.8660   69.2590 O   0  0  0  0  0  0  0  0  0  0  0  0
  -11.6000   15.7990   69.9370 C   0  0  0  0  0  0  0  0  0  0  0  0
  -11.9610   14.6770   69.2830 C   0  0  0  0  0  0  0  0  0  0  0  0
  -11.7560   14.4950   67.8050 C   0  0  0  0  0  0  0  0  0  0  0  0
  -12.6030   13.5050   69.9880 C   0  0  0  0  0  0  0  0  0  0  0  0
  -11.7120   12.4060   69.8460 O   0  0  0  0  0  0  0  0  0  0  0  0
  -12.1000   11.2580   70.4430 C   0  0  0  0  0  0  0  0  0  0  0  0
  -11.5780   10.1440   70.1090 N   0  0  0  0  0  0  0  0  0  0  0  0
  -13.0570   11.3360   71.3830 O   0  0  0  0  0  0  0  0  0  0  0  0
  -13.2990   12.5330   72.1340 C   0  0  0  0  0  0  0  0  0  0  0  0
  -12.7630   13.7490   71.4460 C   0  0  0  0  0  0  0  0  0  0  0  0
  -12.3860   14.9000   72.0450 C   0  0  0  0  0  0  0  0  0  0  0  0
  -11.8260   15.9300   71.2940 O   0  0  0  0  0  0  0  0  0  0  0  0
   -9.9460   17.8650   67.2580 C   0  0  0  0  0  0  0  0  0  0  0  0
  -10.6360   18.7340   66.4040 C   0  0  0  0  0  0  0  0  0  0  0  0
   -9.9940   19.7590   65.8360 N   0  0  0  0  0  0  0  0  0  0  0  0
  -10.6670   20.5860   65.0100 F   0  0  0  0  0  0  0  0  0  0  0  0
   -8.7110   19.9760   66.0360 N   0  0  0  0  0  0  0  0  0  0  0  0
   -8.0290   19.1880   66.8920 C   0  0  0  0  0  0  0  0  0  0  0  0
   -8.6280   18.1180   67.5470 N   0  0  0  0  0  0  0  0  0  0  0  0
   -6.6550   19.4570   67.1330 C   0  0  0  0  0  0  0  0  0  0  0  0
   -7.9120   17.3930   68.4520 C   0  0  0  0  0  0  0  0  0  0  0  0
   -6.5920   17.6970   68.7520 C   0  0  0  0  0  0  0  0  0  0  0  0
   -5.8790   16.9020   69.7390 C   0  0  0  0  0  0  0  0  0  0  0  0
   -5.9630   18.7390   68.1200 C   0  0  0  0  0  0  0  0  0  0  0  0
   -6.4070   15.8770   70.1390 O   0  0  0  0  0  0  0  0  0  0  0  0
   -4.5200   17.3990   70.1880 C   0  0  0  0  0  0  0  0  0  0  0  0
   -3.8190   16.7020   70.9010 O   0  0  0  0  0  0  0  0  0  0  0  0
   -4.1890   18.8030   69.7260 C   0  0  0  0  0  0  0  0  0  0  0  0
   -4.6690   19.0960   68.3920 O   0  0  0  0  0  0  0  0  0  0  0  0
   -6.0260   20.5920   66.5780 N   0  0  0  0  0  0  0  0  0  0  0  0
   -4.7080   19.8220   70.6880 C   0  0  0  0  0  0  0  0  0  0  0  0
   -5.8370   20.6330   70.2420 O   0  0  0  0  0  0  0  0  0  0  0  0
   -4.7180   19.4510   72.0550 O   0  0  0  0  0  0  0  0  0  0  0  0
   -3.8670   20.4420   71.7220 C   0  0  0  0  0  0  0  0  0  0  0  0
   -3.8660   21.6200   72.0200 O   0  0  0  0  0  0  0  0  0  0  0  0
  -10.7030   15.5970   65.8290 O   0  0  0  0  0  0  0  0  0  0  0  0
  -10.4190   14.2840   65.2800 C   0  0  0  0  0  0  0  0  0  0  0  0
  -10.1610   13.3650   66.3350 O   0  0  0  0  0  0  0  0  0  0  0  0
   -9.8080   12.1050   65.8710 C   0  0  0  0  0  0  0  0  0  0  0  0
   -8.8940   11.3840   66.5290 C   0  0  0  0  0  0  0  0  0  0  0  0
  -10.4510   11.5220   64.6500 C   0  0  0  0  0  0  0  0  0  0  0  0
   -8.2510   11.8580   67.6470 O   0  0  0  0  0  0  0  0  0  0  0  0
  -11.5370   12.4080   64.0520 C   0  0  0  0  0  0  0  0  0  0  0  0
  -10.1160   10.4680   64.1440 O   0  0  0  0  0  0  0  0  0  0  0  0
  -11.6720   13.8190   64.5770 C   0  0  0  0  0  0  0  0  0  0  0  0
  -12.2860   12.0150   63.1780 O   0  0  0  0  0  0  0  0  0  0  0  0
  -12.7070   14.4680   64.5240 O   0  0  0  0  0  0  0  0  0  0  0  0
  -12.4830   15.1590   73.4990 C   0  0  0  0  0  0  0  0  0  0  0  0
  -13.3890   16.1900   73.8960 N   0  0  0  0  0  0  0  0  0  0  0  0
  -12.1810   16.4730   73.9360 N   0  0  0  0  0  0  0  0  0  0  0  0
  1 39  1  0  0  0  0
  1  2  2  0  0  0  0
  1  6  1  0  0  0  0
  2  3  1  0  0  0  0
  2 16  1  0  0  0  0
  3  4  1  0  0  0  0
  4  5  2  0  0  0  0
  4 15  1  0  0  0  0
  5  6  1  0  0  0  0
  5  7  1  0  0  0  0
  7  8  1  0  0  0  0
  7 13  1  0  0  0  0
  8  9  1  0  0  0  0
  9 10  2  0  0  0  0
  9 11  1  0  0  0  0
 11 12  1  0  0  0  0
 12 13  1  0  0  0  0
 13 14  2  0  0  0  0
 14 15  1  0  0  0  0
 14 51  1  0  0  0  0
 16 17  2  0  0  0  0
 16 22  1  0  0  0  0
 17 18  1  0  0  0  0
 18 19  1  0  0  0  0
 18 20  2  0  0  0  0
 20 21  1  0  0  0  0
 21 22  2  0  0  0  0
 21 23  1  0  0  0  0
 22 24  1  0  0  0  0
 23 27  2  0  0  0  0
 23 33  1  0  0  0  0
 24 25  2  0  0  0  0
 25 26  1  0  0  0  0
 25 27  1  0  0  0  0
 26 28  2  0  0  0  0
 26 29  1  0  0  0  0
 27 32  1  0  0  0  0
 29 30  2  0  0  0  0
 29 31  1  0  0  0  0
 31 32  1  0  0  0  0
 31 34  1  0  0  0  0
 34 35  1  0  0  0  0
 34 36  1  0  0  0  0
 34 37  1  0  0  0  0
 36 37  1  0  0  0  0
 37 38  2  0  0  0  0
 39 40  1  0  0  0  0
 40 41  1  0  0  0  0
 40 48  1  0  0  0  0
 41 42  1  0  0  0  0
 42 43  2  0  0  0  0
 42 44  1  0  0  0  0
 43 45  1  0  0  0  0
 44 46  1  0  0  0  0
 44 47  2  0  0  0  0
 46 48  1  0  0  0  0
 46 49  2  0  0  0  0
 48 50  2  0  0  0  0
 51 52  1  0  0  0  0
 51 53  1  0  0  0  0
 52 53  2  0  0  0  0
M  CHG  3  15   1  18   1  22   1
M  END