
 OpenBabel05092121563D

 50 60  0  0  1  0  0  0  0  0999 V2000
  -10.8210    9.0550   69.8750 C   0  0  0  0  0  0  0  0  0  0  0  0
  -11.2680    9.5830   71.1000 C   0  0  0  0  0  0  0  0  0  0  0  0
  -11.8750   10.8500   71.2060 C   0  0  0  0  0  0  0  0  0  0  0  0
  -12.0250   11.7100   70.1040 C   0  0  0  0  0  0  0  0  0  0  0  0
  -11.5620   11.2250   68.8540 C   0  0  0  0  0  0  0  0  0  0  0  0
  -11.0370    9.8980   68.7630 C   0  0  0  0  0  0  0  0  0  0  0  0
  -10.7420    9.4630   67.3810 C   0  0  0  0  0  0  0  0  0  0  0  0
  -11.1250    8.3770   66.9520 O   0  0  0  0  0  0  0  0  0  0  0  0
   -9.9990   10.5030   66.5350 C   0  0  0  0  0  0  0  0  0  0  0  0
  -10.9960   11.6560   66.3930 C   0  0  0  0  0  0  0  0  0  0  0  0
  -11.5860   12.0850   67.7260 C   0  0  0  0  0  0  0  0  0  0  0  0
  -12.0690   13.3790   67.8360 C   0  0  0  0  0  0  0  0  0  0  0  0
  -12.5750   13.8220   69.0520 C   0  0  0  0  0  0  0  0  0  0  0  0
  -12.5830   13.0260   70.2230 C   0  0  0  0  0  0  0  0  0  0  0  0
  -12.0240   14.3050   66.8360 O   0  0  0  0  0  0  0  0  0  0  0  0
  -11.2710   14.0090   65.6520 C   0  0  0  0  0  0  0  0  0  0  0  0
  -10.2850   12.8410   65.7530 C   0  0  0  0  0  0  0  0  0  0  0  0
   -9.0480   13.1600   66.5590 C   0  0  0  0  0  0  0  0  0  0  0  0
   -8.3670   12.1240   67.2030 C   0  0  0  0  0  0  0  0  0  0  0  0
   -8.7740   10.8230   67.1930 O   0  0  0  0  0  0  0  0  0  0  0  0
   -7.2410   12.3950   67.9720 C   0  0  0  0  0  0  0  0  0  0  0  0
   -6.8030   13.7070   68.1210 C   0  0  0  0  0  0  0  0  0  0  0  0
   -7.4920   14.7590   67.5050 C   0  0  0  0  0  0  0  0  0  0  0  0
   -8.6160   14.4940   66.7020 C   0  0  0  0  0  0  0  0  0  0  0  0
   -9.2860   15.5810   66.1130 C   0  0  0  0  0  0  0  0  0  0  0  0
  -10.5110   15.3100   65.3250 C   0  0  0  0  0  0  0  0  0  0  0  0
  -10.9130   16.1120   64.4820 O   0  0  0  0  0  0  0  0  0  0  0  0
   -8.8500   16.9040   66.3020 C   0  0  0  0  0  0  0  0  0  0  0  0
   -7.7390   17.1640   67.1080 C   0  0  0  0  0  0  0  0  0  0  0  0
   -7.0930   16.0830   67.7170 C   0  0  0  0  0  0  0  0  0  0  0  0
  -12.1840   13.7280   64.5870 O   0  0  0  0  0  0  0  0  0  0  0  0
   -9.7040    9.9690   65.2470 O   0  0  0  0  0  0  0  0  0  0  0  0
  -10.1510    7.7110   69.8290 C   0  0  0  0  0  0  0  0  0  0  0  0
  -10.8450    6.4830   69.8830 C   0  0  0  0  0  0  0  0  0  0  0  0
  -10.2000    5.2400   69.9140 C   0  0  0  0  0  0  0  0  0  0  0  0
  -12.1840    6.4470   69.8680 F   0  0  0  0  0  0  0  0  0  0  0  0
   -8.8200    5.1760   69.8010 C   0  0  0  0  0  0  0  0  0  0  0  0
   -8.1110    6.3590   69.6670 C   0  0  0  0  0  0  0  0  0  0  0  0
   -6.7830    6.3100   69.4990 F   0  0  0  0  0  0  0  0  0  0  0  0
   -8.7510    7.6020   69.7000 C   0  0  0  0  0  0  0  0  0  0  0  0
  -13.0910   13.6700   71.6180 C   0  0  0  0  0  0  0  0  0  0  0  0
  -14.2720   15.0000   71.4110 C   0  0  0  0  0  0  0  0  0  0  0  0
  -13.1770   15.4280   71.8480 C   0  0  0  0  0  0  0  0  0  0  0  0
  -12.0390   15.0320   72.1620 C   0  0  0  0  0  0  0  0  0  0  0  0
   -7.3220   18.8490   67.5660 S   0  0  0  0  0  0  0  0  0  0  0  0
   -8.3690   19.1880   68.9980 C   0  0  0  0  0  0  0  0  0  0  0  0
   -9.8670   19.0950   68.7700 C   0  0  0  0  0  0  0  0  0  0  0  0
  -10.3750   20.0080   67.6610 C   0  0  0  0  0  0  0  0  0  0  0  0
   -9.7160   19.6950   66.3270 C   0  0  0  0  0  0  0  0  0  0  0  0
   -8.2070   19.8750   66.3670 C   0  0  0  0  0  0  0  0  0  0  0  0
  1 33  1  0  0  0  0
  1  2  2  0  0  0  0
  1  6  1  0  0  0  0
  2  3  1  0  0  0  0
  3  4  2  0  0  0  0
  4  5  1  0  0  0  0
  4 14  1  0  0  0  0
  5  6  2  0  0  0  0
  5 11  1  0  0  0  0
  6  7  1  0  0  0  0
  7  9  1  0  0  0  0
  7  8  2  0  0  0  0
  9 10  1  0  0  0  0
  9 20  1  0  0  0  0
  9 32  1  0  0  0  0
 10 11  1  0  0  0  0
 10 17  1  0  0  0  0
 11 12  2  0  0  0  0
 12 13  1  0  0  0  0
 12 15  1  0  0  0  0
 13 14  2  0  0  0  0
 14 41  1  0  0  0  0
 15 16  1  0  0  0  0
 16 17  1  0  0  0  0
 16 26  1  0  0  0  0
 16 31  1  0  0  0  0
 17 18  1  0  0  0  0
 18 19  2  0  0  0  0
 18 24  1  0  0  0  0
 19 20  1  0  0  0  0
 19 21  1  0  0  0  0
 21 22  2  0  0  0  0
 22 23  1  0  0  0  0
 23 24  2  0  0  0  0
 23 30  1  0  0  0  0
 24 25  1  0  0  0  0
 25 26  1  0  0  0  0
 25 28  2  0  0  0  0
 26 27  2  0  0  0  0
 28 29  1  0  0  0  0
 29 30  2  0  0  0  0
 29 45  1  0  0  0  0
 33 34  1  0  0  0  0
 33 40  2  0  0  0  0
 34 35  2  0  0  0  0
 34 36  1  0  0  0  0
 35 37  1  0  0  0  0
 37 38  2  0  0  0  0
 38 39  1  0  0  0  0
 38 40  1  0  0  0  0
 41 42  1  0  0  0  0
 41 44  1  0  0  0  0
 42 43  2  0  0  0  0
 43 44  2  0  0  0  0
 45 46  1  0  0  0  0
 45 50  1  0  0  0  0
 46 47  1  0  0  0  0
 47 48  1  0  0  0  0
 48 49  1  0  0  0  0
 49 50  1  0  0  0  0
M  CHG  1  45   1
M  END