
 OpenBabel11222000583D

 54 62  0  0  1  0  0  0  0  0999 V2000
  -10.0700   15.7570   67.4080 C   0  0  0  0  0  0  0  0  0  0  0  0
  -10.0610   16.9330   68.0830 C   0  0  0  0  0  0  0  0  0  0  0  0
  -10.6230   17.0570   69.3610 O   0  0  0  0  0  0  0  0  0  0  0  0
  -11.2300   15.9600   69.9660 C   0  0  0  0  0  0  0  0  0  0  0  0
  -11.2000   14.7530   69.3900 C   0  0  0  0  0  0  0  0  0  0  0  0
  -10.6260   14.5080   68.0480 C   0  0  0  0  0  0  0  0  0  0  0  0
  -11.7980   13.6030   70.1090 C   0  0  0  0  0  0  0  0  0  0  0  0
  -11.6510   12.4070   69.6320 N   0  0  0  0  0  0  0  0  0  0  0  0
  -12.2220   11.3930   70.3370 C   0  0  0  0  0  0  0  0  0  0  0  0
  -11.9000   10.2250   69.9250 N   0  0  0  0  0  0  0  0  0  0  0  0
  -13.0640   11.4870   71.4010 N   0  0  0  0  0  0  0  0  0  0  0  0
  -13.1960   12.6680   71.8800 C   0  0  0  0  0  0  0  0  0  0  0  0
  -12.5560   13.8750   71.3560 C   0  0  0  0  0  0  0  0  0  0  0  0
  -12.5700   15.1380   71.8360 C   0  0  0  0  0  0  0  0  0  0  0  0
  -11.8680   16.1440   71.1660 N   0  0  0  0  0  0  0  0  0  0  0  0
  -14.0020   12.8220   72.9330 O   0  0  0  0  0  0  0  0  0  0  0  0
   -9.4250   18.1820   67.5580 C   0  0  0  0  0  0  0  0  0  0  0  0
  -10.1030   18.8950   66.5680 C   0  0  0  0  0  0  0  0  0  0  0  0
   -9.5990   20.0100   66.0410 N   0  0  0  0  0  0  0  0  0  0  0  0
  -10.3180   20.6750   65.1150 F   0  0  0  0  0  0  0  0  0  0  0  0
   -8.4160   20.4780   66.3730 N   0  0  0  0  0  0  0  0  0  0  0  0
   -7.6840   19.8330   67.2860 C   0  0  0  0  0  0  0  0  0  0  0  0
   -8.1470   18.6710   67.9390 C   0  0  0  0  0  0  0  0  0  0  0  0
   -6.4120   20.3260   67.5850 C   0  0  0  0  0  0  0  0  0  0  0  0
   -7.2930   18.0900   68.9130 C   0  0  0  0  0  0  0  0  0  0  0  0
   -6.0120   18.6040   69.1740 C   0  0  0  0  0  0  0  0  0  0  0  0
   -5.1360   17.9320   70.1340 C   0  0  0  0  0  0  0  0  0  0  0  0
   -5.5560   19.7240   68.5080 C   0  0  0  0  0  0  0  0  0  0  0  0
   -5.5400   17.0390   70.8590 O   0  0  0  0  0  0  0  0  0  0  0  0
   -3.6960   18.3710   70.1260 C   0  0  0  0  0  0  0  0  0  0  0  0
   -2.8030   17.5700   70.3590 O   0  0  0  0  0  0  0  0  0  0  0  0
   -3.4960   19.8240   69.7620 C   0  0  0  0  0  0  0  0  0  0  0  0
   -4.3300   20.2980   68.6900 O   0  0  0  0  0  0  0  0  0  0  0  0
   -5.9890   21.4270   66.9390 F   0  0  0  0  0  0  0  0  0  0  0  0
   -3.5630   20.7030   70.9820 C   0  0  0  0  0  0  0  0  0  0  0  0
   -4.5610   21.7390   70.9730 O   0  0  0  0  0  0  0  0  0  0  0  0
   -3.3860   20.0580   72.2480 O   0  0  0  0  0  0  0  0  0  0  0  0
   -2.4150   20.9090   71.8590 C   0  0  0  0  0  0  0  0  0  0  0  0
   -1.2340   20.7330   71.6730 O   0  0  0  0  0  0  0  0  0  0  0  0
   -9.5300   15.6480   66.1310 O   0  0  0  0  0  0  0  0  0  0  0  0
   -9.9690   14.5390   65.3210 C   0  0  0  0  0  0  0  0  0  0  0  0
  -10.3570   13.4370   66.1310 O   0  0  0  0  0  0  0  0  0  0  0  0
  -10.6210   12.3110   65.3710 C   0  0  0  0  0  0  0  0  0  0  0  0
  -10.1430   11.1100   65.7110 C   0  0  0  0  0  0  0  0  0  0  0  0
  -11.4690   12.4200   64.1520 C   0  0  0  0  0  0  0  0  0  0  0  0
   -9.3460   10.9100   66.8080 O   0  0  0  0  0  0  0  0  0  0  0  0
  -11.8820   13.8460   63.8250 C   0  0  0  0  0  0  0  0  0  0  0  0
  -11.7740   11.4780   63.4440 O   0  0  0  0  0  0  0  0  0  0  0  0
  -11.1570   14.9970   64.4950 C   0  0  0  0  0  0  0  0  0  0  0  0
  -12.7740   14.0710   63.0240 O   0  0  0  0  0  0  0  0  0  0  0  0
  -11.4970   16.1640   64.3470 O   0  0  0  0  0  0  0  0  0  0  0  0
  -13.2890   15.5600   73.0620 C   0  0  0  0  0  0  0  0  0  0  0  0
  -12.7030   15.4130   74.3660 O   0  0  0  0  0  0  0  0  0  0  0  0
  -12.8940   16.7270   73.8070 O   0  0  0  0  0  0  0  0  0  0  0  0
  1 40  1  0  0  0  0
  1  2  2  0  0  0  0
  1  6  1  0  0  0  0
  2  3  1  0  0  0  0
  2 17  1  0  0  0  0
  3  4  1  0  0  0  0
  4  5  2  0  0  0  0
  4 15  1  0  0  0  0
  5  6  1  0  0  0  0
  5  7  1  0  0  0  0
  7  8  2  0  0  0  0
  7 13  1  0  0  0  0
  8  9  1  0  0  0  0
  9 10  2  0  0  0  0
  9 11  1  0  0  0  0
 11 12  2  0  0  0  0
 12 13  1  0  0  0  0
 12 16  1  0  0  0  0
 13 14  2  0  0  0  0
 14 15  1  0  0  0  0
 14 52  1  0  0  0  0
 17 18  2  0  0  0  0
 17 23  1  0  0  0  0
 18 19  1  0  0  0  0
 19 20  1  0  0  0  0
 19 21  2  0  0  0  0
 21 22  1  0  0  0  0
 22 23  2  0  0  0  0
 22 24  1  0  0  0  0
 23 25  1  0  0  0  0
 24 28  2  0  0  0  0
 24 34  1  0  0  0  0
 25 26  2  0  0  0  0
 26 27  1  0  0  0  0
 26 28  1  0  0  0  0
 27 29  2  0  0  0  0
 27 30  1  0  0  0  0
 28 33  1  0  0  0  0
 30 31  2  0  0  0  0
 30 32  1  0  0  0  0
 32 33  1  0  0  0  0
 32 35  1  0  0  0  0
 35 36  1  0  0  0  0
 35 37  1  0  0  0  0
 35 38  1  0  0  0  0
 37 38  1  0  0  0  0
 38 39  2  0  0  0  0
 40 41  1  0  0  0  0
 41 42  1  0  0  0  0
 41 49  1  0  0  0  0
 42 43  1  0  0  0  0
 43 44  2  0  0  0  0
 43 45  1  0  0  0  0
 44 46  1  0  0  0  0
 45 47  1  0  0  0  0
 45 48  2  0  0  0  0
 47 49  1  0  0  0  0
 47 50  2  0  0  0  0
 49 51  2  0  0  0  0
 52 53  1  0  0  0  0
 52 54  1  0  0  0  0
 53 54  1  0  0  0  0
M  CHG  1  19   1
M  END