
 OpenBabel11242001143D

 54 62  0  0  1  0  0  0  0  0999 V2000
  -10.4760   15.5840   67.5400 C   0  0  0  0  0  0  0  0  0  0  0  0
  -10.3850   16.7710   68.1690 C   0  0  0  0  0  0  0  0  0  0  0  0
  -10.8430   17.0120   69.4510 O   0  0  0  0  0  0  0  0  0  0  0  0
  -11.4430   15.9880   70.1480 C   0  0  0  0  0  0  0  0  0  0  0  0
  -11.5680   14.7200   69.6220 C   0  0  0  0  0  0  0  0  0  0  0  0
  -11.0890   14.3980   68.2440 C   0  0  0  0  0  0  0  0  0  0  0  0
  -12.1850   13.7730   70.4280 C   0  0  0  0  0  0  0  0  0  0  0  0
  -12.3760   12.4880   69.9090 O   0  0  0  0  0  0  0  0  0  0  0  0
  -12.8260   11.4210   70.6860 C   0  0  0  0  0  0  0  0  0  0  0  0
  -12.8960   10.2910   70.2210 O   0  0  0  0  0  0  0  0  0  0  0  0
  -13.0870   11.6860   71.9880 O   0  0  0  0  0  0  0  0  0  0  0  0
  -13.3430   13.0030   72.4580 C   0  0  0  0  0  0  0  0  0  0  0  0
  -12.6530   14.0740   71.6910 C   0  0  0  0  0  0  0  0  0  0  0  0
  -12.5160   15.3890   72.1440 C   0  0  0  0  0  0  0  0  0  0  0  0
  -11.8950   16.3290   71.3710 N   0  0  0  0  0  0  0  0  0  0  0  0
  -14.7350   13.2620   72.4060 O   0  0  0  0  0  0  0  0  0  0  0  0
   -9.7500   17.9450   67.5560 C   0  0  0  0  0  0  0  0  0  0  0  0
  -10.4920   18.6760   66.6370 C   0  0  0  0  0  0  0  0  0  0  0  0
   -9.9560   19.7360   66.0250 N   0  0  0  0  0  0  0  0  0  0  0  0
  -10.6970   20.4210   65.1340 F   0  0  0  0  0  0  0  0  0  0  0  0
   -8.7160   20.1350   66.2500 N   0  0  0  0  0  0  0  0  0  0  0  0
   -7.9550   19.4700   67.1270 C   0  0  0  0  0  0  0  0  0  0  0  0
   -8.4280   18.3480   67.8260 C   0  0  0  0  0  0  0  0  0  0  0  0
   -6.6440   19.8900   67.3560 C   0  0  0  0  0  0  0  0  0  0  0  0
   -7.5620   17.6920   68.7380 C   0  0  0  0  0  0  0  0  0  0  0  0
   -6.2510   18.1460   68.9430 C   0  0  0  0  0  0  0  0  0  0  0  0
   -5.3550   17.4320   69.8620 C   0  0  0  0  0  0  0  0  0  0  0  0
   -5.7850   19.2540   68.2580 C   0  0  0  0  0  0  0  0  0  0  0  0
   -5.7380   16.4610   70.4920 O   0  0  0  0  0  0  0  0  0  0  0  0
   -3.9380   17.9450   69.9650 C   0  0  0  0  0  0  0  0  0  0  0  0
   -3.0410   17.2370   70.3960 O   0  0  0  0  0  0  0  0  0  0  0  0
   -3.7640   19.3810   69.5260 C   0  0  0  0  0  0  0  0  0  0  0  0
   -4.5250   19.7660   68.3760 O   0  0  0  0  0  0  0  0  0  0  0  0
   -6.1890   20.9570   66.6800 F   0  0  0  0  0  0  0  0  0  0  0  0
   -4.0380   20.3190   70.6560 C   0  0  0  0  0  0  0  0  0  0  0  0
   -5.0410   21.3390   70.4190 O   0  0  0  0  0  0  0  0  0  0  0  0
   -4.0390   19.7290   71.9510 O   0  0  0  0  0  0  0  0  0  0  0  0
   -3.0650   20.6290   71.7060 C   0  0  0  0  0  0  0  0  0  0  0  0
   -2.8380   21.6890   72.2430 O   0  0  0  0  0  0  0  0  0  0  0  0
   -9.9530   15.4200   66.2630 O   0  0  0  0  0  0  0  0  0  0  0  0
   -9.8640   14.0650   65.7900 C   0  0  0  0  0  0  0  0  0  0  0  0
   -9.8260   13.1410   66.8740 O   0  0  0  0  0  0  0  0  0  0  0  0
   -9.6190   11.8290   66.4790 C   0  0  0  0  0  0  0  0  0  0  0  0
   -8.8730   11.0110   67.2310 C   0  0  0  0  0  0  0  0  0  0  0  0
  -10.2400   11.2930   65.2310 C   0  0  0  0  0  0  0  0  0  0  0  0
   -8.2550   11.4360   68.3780 O   0  0  0  0  0  0  0  0  0  0  0  0
  -11.0510   12.3180   64.4580 C   0  0  0  0  0  0  0  0  0  0  0  0
  -10.0920   10.1520   64.8300 O   0  0  0  0  0  0  0  0  0  0  0  0
  -11.0890   13.7390   64.9630 C   0  0  0  0  0  0  0  0  0  0  0  0
  -11.6160   12.0300   63.4170 O   0  0  0  0  0  0  0  0  0  0  0  0
  -12.0210   14.4940   64.7270 O   0  0  0  0  0  0  0  0  0  0  0  0
  -13.0840   15.8280   73.4740 C   0  0  0  0  0  0  0  0  0  0  0  0
  -12.3600   15.4580   74.6560 O   0  0  0  0  0  0  0  0  0  0  0  0
  -12.3700   16.8290   74.2130 O   0  0  0  0  0  0  0  0  0  0  0  0
  1 40  1  0  0  0  0
  1  2  2  0  0  0  0
  1  6  1  0  0  0  0
  2  3  1  0  0  0  0
  2 17  1  0  0  0  0
  3  4  1  0  0  0  0
  4  5  2  0  0  0  0
  4 15  1  0  0  0  0
  5  6  1  0  0  0  0
  5  7  1  0  0  0  0
  7  8  1  0  0  0  0
  7 13  2  0  0  0  0
  8  9  1  0  0  0  0
  9 10  2  0  0  0  0
  9 11  1  0  0  0  0
 11 12  1  0  0  0  0
 12 13  1  0  0  0  0
 12 16  1  0  0  0  0
 13 14  1  0  0  0  0
 14 15  2  0  0  0  0
 14 52  1  0  0  0  0
 17 18  2  0  0  0  0
 17 23  1  0  0  0  0
 18 19  1  0  0  0  0
 19 20  1  0  0  0  0
 19 21  2  0  0  0  0
 21 22  1  0  0  0  0
 22 23  2  0  0  0  0
 22 24  1  0  0  0  0
 23 25  1  0  0  0  0
 24 28  2  0  0  0  0
 24 34  1  0  0  0  0
 25 26  2  0  0  0  0
 26 27  1  0  0  0  0
 26 28  1  0  0  0  0
 27 29  2  0  0  0  0
 27 30  1  0  0  0  0
 28 33  1  0  0  0  0
 30 31  2  0  0  0  0
 30 32  1  0  0  0  0
 32 33  1  0  0  0  0
 32 35  1  0  0  0  0
 35 36  1  0  0  0  0
 35 37  1  0  0  0  0
 35 38  1  0  0  0  0
 37 38  1  0  0  0  0
 38 39  2  0  0  0  0
 40 41  1  0  0  0  0
 41 42  1  0  0  0  0
 41 49  1  0  0  0  0
 42 43  1  0  0  0  0
 43 44  2  0  0  0  0
 43 45  1  0  0  0  0
 44 46  1  0  0  0  0
 45 47  1  0  0  0  0
 45 48  2  0  0  0  0
 47 49  1  0  0  0  0
 47 50  2  0  0  0  0
 49 51  2  0  0  0  0
 52 53  1  0  0  0  0
 52 54  1  0  0  0  0
 53 54  1  0  0  0  0
M  CHG  1  19   1
M  END