
 OpenBabel09232009293D

 51 59  0  0  1  0  0  0  0  0999 V2000
  -10.3560   15.4870   67.4870 C   0  0  0  0  0  0  0  0  0  0  0  0
  -10.4700   16.6870   68.0830 C   0  0  0  0  0  0  0  0  0  0  0  0
  -11.1070   16.8960   69.2910 O   0  0  0  0  0  0  0  0  0  0  0  0
  -11.6250   15.8140   69.9690 C   0  0  0  0  0  0  0  0  0  0  0  0
  -11.5550   14.5260   69.4720 C   0  0  0  0  0  0  0  0  0  0  0  0
  -10.9460   14.2620   68.1330 C   0  0  0  0  0  0  0  0  0  0  0  0
  -12.0870   13.5110   70.2670 C   0  0  0  0  0  0  0  0  0  0  0  0
  -12.0340   12.1740   69.8550 N   0  0  0  0  0  0  0  0  0  0  0  0
  -12.5710   11.1300   70.5350 C   0  0  0  0  0  0  0  0  0  0  0  0
  -12.4990    9.9890   70.0950 O   0  0  0  0  0  0  0  0  0  0  0  0
  -13.1950   11.4090   71.6990 N   0  0  0  0  0  0  0  0  0  0  0  0
  -13.1890   12.6890   72.3520 C   0  0  0  0  0  0  0  0  0  0  0  0
  -12.6770   13.8080   71.4970 C   0  0  0  0  0  0  0  0  0  0  0  0
  -12.7150   15.1410   71.9240 C   0  0  0  0  0  0  0  0  0  0  0  0
  -12.1640   16.1290   71.1610 N   0  0  0  0  0  0  0  0  0  0  0  0
   -9.8980   17.9160   67.5040 C   0  0  0  0  0  0  0  0  0  0  0  0
  -10.7410   18.6060   66.7100 N   0  0  0  0  0  0  0  0  0  0  0  0
  -10.2680   19.7460   66.2240 C   0  0  0  0  0  0  0  0  0  0  0  0
   -9.0520   20.2250   66.4640 N   0  0  0  0  0  0  0  0  0  0  0  0
   -8.2610   19.4980   67.2570 C   0  0  0  0  0  0  0  0  0  0  0  0
   -8.6370   18.3060   67.8190 N   0  0  0  0  0  0  0  0  0  0  0  0
   -6.9890   19.9920   67.5380 C   0  0  0  0  0  0  0  0  0  0  0  0
   -7.7840   17.6140   68.6160 C   0  0  0  0  0  0  0  0  0  0  0  0
   -6.5170   18.1060   68.9020 C   0  0  0  0  0  0  0  0  0  0  0  0
   -6.1170   19.3150   68.3810 C   0  0  0  0  0  0  0  0  0  0  0  0
   -5.6100   17.3400   69.7460 C   0  0  0  0  0  0  0  0  0  0  0  0
   -4.9100   19.8950   68.6360 O   0  0  0  0  0  0  0  0  0  0  0  0
   -4.2480   19.4850   69.8490 C   0  0  0  0  0  0  0  0  0  0  0  0
   -4.2930   17.9940   70.1090 C   0  0  0  0  0  0  0  0  0  0  0  0
   -3.3900   17.3430   70.6100 O   0  0  0  0  0  0  0  0  0  0  0  0
   -5.9260   16.2200   70.1080 O   0  0  0  0  0  0  0  0  0  0  0  0
   -4.7960   20.2460   71.0160 C   0  0  0  0  0  0  0  0  0  0  0  0
   -6.2400   20.4210   71.0570 O   0  0  0  0  0  0  0  0  0  0  0  0
   -4.1710   19.9770   72.2650 O   0  0  0  0  0  0  0  0  0  0  0  0
   -4.0190   21.2220   71.7790 C   0  0  0  0  0  0  0  0  0  0  0  0
   -4.3920   22.2890   72.2300 O   0  0  0  0  0  0  0  0  0  0  0  0
   -9.6250   15.3520   66.3160 O   0  0  0  0  0  0  0  0  0  0  0  0
  -10.0250   14.2890   65.4340 C   0  0  0  0  0  0  0  0  0  0  0  0
  -10.0750   13.0460   66.1260 O   0  0  0  0  0  0  0  0  0  0  0  0
  -10.4450   11.9610   65.3480 C   0  0  0  0  0  0  0  0  0  0  0  0
  -10.0410   10.7310   65.6720 C   0  0  0  0  0  0  0  0  0  0  0  0
  -11.3240   12.1100   64.1510 C   0  0  0  0  0  0  0  0  0  0  0  0
   -9.2540   10.5150   66.7440 F   0  0  0  0  0  0  0  0  0  0  0  0
  -11.8500   13.5190   63.9340 C   0  0  0  0  0  0  0  0  0  0  0  0
  -11.5740   11.2010   63.3780 O   0  0  0  0  0  0  0  0  0  0  0  0
  -11.3910   14.6060   64.8680 C   0  0  0  0  0  0  0  0  0  0  0  0
  -12.5560   13.7990   62.9790 O   0  0  0  0  0  0  0  0  0  0  0  0
  -12.0490   15.6090   65.0980 O   0  0  0  0  0  0  0  0  0  0  0  0
  -13.3210   15.5540   73.2450 C   0  0  0  0  0  0  0  0  0  0  0  0
  -12.5320   15.3200   74.4230 O   0  0  0  0  0  0  0  0  0  0  0  0
  -12.7500   16.6640   73.9560 O   0  0  0  0  0  0  0  0  0  0  0  0
  1 37  1  0  0  0  0
  1  2  2  0  0  0  0
  1  6  1  0  0  0  0
  2  3  1  0  0  0  0
  2 16  1  0  0  0  0
  3  4  1  0  0  0  0
  4  5  2  0  0  0  0
  4 15  1  0  0  0  0
  5  6  1  0  0  0  0
  5  7  1  0  0  0  0
  7  8  1  0  0  0  0
  7 13  2  0  0  0  0
  8  9  1  0  0  0  0
  9 10  2  0  0  0  0
  9 11  1  0  0  0  0
 11 12  1  0  0  0  0
 12 13  1  0  0  0  0
 13 14  1  0  0  0  0
 14 15  2  0  0  0  0
 14 49  1  0  0  0  0
 16 17  2  0  0  0  0
 16 21  1  0  0  0  0
 17 18  1  0  0  0  0
 18 19  2  0  0  0  0
 19 20  1  0  0  0  0
 20 21  2  0  0  0  0
 20 22  1  0  0  0  0
 21 23  1  0  0  0  0
 22 25  2  0  0  0  0
 23 24  2  0  0  0  0
 24 25  1  0  0  0  0
 24 26  1  0  0  0  0
 25 27  1  0  0  0  0
 26 29  1  0  0  0  0
 26 31  2  0  0  0  0
 27 28  1  0  0  0  0
 28 29  1  0  0  0  0
 28 32  1  0  0  0  0
 29 30  2  0  0  0  0
 32 33  1  0  0  0  0
 32 34  1  0  0  0  0
 32 35  1  0  0  0  0
 34 35  1  0  0  0  0
 35 36  2  0  0  0  0
 37 38  1  0  0  0  0
 38 39  1  0  0  0  0
 38 46  1  0  0  0  0
 39 40  1  0  0  0  0
 40 41  2  0  0  0  0
 40 42  1  0  0  0  0
 41 43  1  0  0  0  0
 42 44  1  0  0  0  0
 42 45  2  0  0  0  0
 44 46  1  0  0  0  0
 44 47  2  0  0  0  0
 46 48  2  0  0  0  0
 49 50  1  0  0  0  0
 49 51  1  0  0  0  0
 50 51  1  0  0  0  0
M  CHG  1  21   1
M  END