
 OpenBabel09222006353D

 51 59  0  0  1  0  0  0  0  0999 V2000
  -10.4450   15.5160   67.5040 C   0  0  0  0  0  0  0  0  0  0  0  0
  -10.5170   16.6940   68.1540 C   0  0  0  0  0  0  0  0  0  0  0  0
  -11.1540   16.8690   69.3750 O   0  0  0  0  0  0  0  0  0  0  0  0
  -11.6710   15.7720   70.0250 C   0  0  0  0  0  0  0  0  0  0  0  0
  -11.6300   14.5020   69.4760 C   0  0  0  0  0  0  0  0  0  0  0  0
  -11.0630   14.2900   68.1100 C   0  0  0  0  0  0  0  0  0  0  0  0
  -12.1510   13.4640   70.2440 C   0  0  0  0  0  0  0  0  0  0  0  0
  -12.1470   12.1420   69.7930 N   0  0  0  0  0  0  0  0  0  0  0  0
  -12.6310   11.0900   70.5280 C   0  0  0  0  0  0  0  0  0  0  0  0
  -12.5750    9.9670   70.0360 O   0  0  0  0  0  0  0  0  0  0  0  0
  -13.1450   11.3400   71.7710 N   0  0  0  0  0  0  0  0  0  0  0  0
  -13.1790   12.5520   72.2290 C   0  0  0  0  0  0  0  0  0  0  0  0
  -12.6920   13.7230   71.4980 C   0  0  0  0  0  0  0  0  0  0  0  0
  -12.7290   15.0260   71.9880 C   0  0  0  0  0  0  0  0  0  0  0  0
  -12.1970   16.0380   71.2450 N   0  0  0  0  0  0  0  0  0  0  0  0
   -9.9170   17.9360   67.6320 C   0  0  0  0  0  0  0  0  0  0  0  0
  -10.7750   18.7090   66.9160 N   0  0  0  0  0  0  0  0  0  0  0  0
  -10.3070   19.8850   66.4570 C   0  0  0  0  0  0  0  0  0  0  0  0
   -9.0250   20.3490   66.6910 C   0  0  0  0  0  0  0  0  0  0  0  0
   -8.1420   19.5590   67.4340 C   0  0  0  0  0  0  0  0  0  0  0  0
   -8.5800   18.3060   67.9180 C   0  0  0  0  0  0  0  0  0  0  0  0
   -6.8320   20.0000   67.7060 C   0  0  0  0  0  0  0  0  0  0  0  0
   -7.6570   17.5190   68.6470 C   0  0  0  0  0  0  0  0  0  0  0  0
   -6.3560   17.9740   68.8960 C   0  0  0  0  0  0  0  0  0  0  0  0
   -5.9450   19.2180   68.4480 C   0  0  0  0  0  0  0  0  0  0  0  0
   -5.4090   17.1150   69.6120 C   0  0  0  0  0  0  0  0  0  0  0  0
   -4.7000   19.7390   68.6320 O   0  0  0  0  0  0  0  0  0  0  0  0
   -3.8980   19.1750   69.6700 C   0  0  0  0  0  0  0  0  0  0  0  0
   -4.0720   17.7070   69.9800 C   0  0  0  0  0  0  0  0  0  0  0  0
   -3.2510   17.0570   70.6160 O   0  0  0  0  0  0  0  0  0  0  0  0
   -5.6910   15.9690   69.9290 O   0  0  0  0  0  0  0  0  0  0  0  0
   -3.9810   20.0240   70.9080 C   0  0  0  0  0  0  0  0  0  0  0  0
   -4.6530   19.4220   72.0420 O   0  0  0  0  0  0  0  0  0  0  0  0
   -2.7980   20.7670   71.2030 O   0  0  0  0  0  0  0  0  0  0  0  0
   -3.9110   21.4920   70.9380 C   0  0  0  0  0  0  0  0  0  0  0  0
   -4.4900   22.2790   71.6450 O   0  0  0  0  0  0  0  0  0  0  0  0
   -9.7480   15.3930   66.3080 O   0  0  0  0  0  0  0  0  0  0  0  0
   -9.9710   14.1980   65.5510 C   0  0  0  0  0  0  0  0  0  0  0  0
   -9.7040   13.0430   66.3350 O   0  0  0  0  0  0  0  0  0  0  0  0
  -10.0470   11.7890   65.7580 C   0  0  0  0  0  0  0  0  0  0  0  0
  -10.7350   11.7710   64.4060 C   0  0  0  0  0  0  0  0  0  0  0  0
  -11.6420   12.9560   64.1640 C   0  0  0  0  0  0  0  0  0  0  0  0
  -10.5570   10.9090   63.5590 O   0  0  0  0  0  0  0  0  0  0  0  0
  -11.3700   14.2210   64.9380 C   0  0  0  0  0  0  0  0  0  0  0  0
  -12.4930   12.9180   63.2900 O   0  0  0  0  0  0  0  0  0  0  0  0
  -12.1560   15.1550   64.9340 O   0  0  0  0  0  0  0  0  0  0  0  0
  -10.9570   11.0410   66.7350 C   0  0  0  0  0  0  0  0  0  0  0  0
  -10.1360   10.3670   67.6890 O   0  0  0  0  0  0  0  0  0  0  0  0
  -13.3150   15.3900   73.3290 C   0  0  0  0  0  0  0  0  0  0  0  0
  -12.4930   15.1650   74.4870 O   0  0  0  0  0  0  0  0  0  0  0  0
  -12.7590   16.5060   74.0420 O   0  0  0  0  0  0  0  0  0  0  0  0
  1 37  1  0  0  0  0
  1  2  2  0  0  0  0
  1  6  1  0  0  0  0
  2  3  1  0  0  0  0
  2 16  1  0  0  0  0
  3  4  1  0  0  0  0
  4  5  2  0  0  0  0
  4 15  1  0  0  0  0
  5  6  1  0  0  0  0
  5  7  1  0  0  0  0
  7  8  1  0  0  0  0
  7 13  2  0  0  0  0
  8  9  1  0  0  0  0
  9 10  2  0  0  0  0
  9 11  1  0  0  0  0
 11 12  2  0  0  0  0
 12 13  1  0  0  0  0
 13 14  1  0  0  0  0
 14 15  2  0  0  0  0
 14 49  1  0  0  0  0
 16 17  2  0  0  0  0
 16 21  1  0  0  0  0
 17 18  1  0  0  0  0
 18 19  2  0  0  0  0
 19 20  1  0  0  0  0
 20 21  2  0  0  0  0
 20 22  1  0  0  0  0
 21 23  1  0  0  0  0
 22 25  2  0  0  0  0
 23 24  2  0  0  0  0
 24 25  1  0  0  0  0
 24 26  1  0  0  0  0
 25 27  1  0  0  0  0
 26 29  1  0  0  0  0
 26 31  2  0  0  0  0
 27 28  1  0  0  0  0
 28 29  1  0  0  0  0
 28 32  1  0  0  0  0
 29 30  2  0  0  0  0
 32 33  1  0  0  0  0
 32 34  1  0  0  0  0
 32 35  1  0  0  0  0
 34 35  1  0  0  0  0
 35 36  2  0  0  0  0
 37 38  1  0  0  0  0
 38 39  1  0  0  0  0
 38 44  1  0  0  0  0
 39 40  1  0  0  0  0
 40 41  1  0  0  0  0
 40 47  1  0  0  0  0
 41 42  1  0  0  0  0
 41 43  2  0  0  0  0
 42 44  1  0  0  0  0
 42 45  2  0  0  0  0
 44 46  2  0  0  0  0
 47 48  1  0  0  0  0
 49 50  1  0  0  0  0
 49 51  1  0  0  0  0
 50 51  1  0  0  0  0
M  END
