
 OpenBabel11222000583D

 54 63  0  0  1  0  0  0  0  0999 V2000
  -10.5300   11.1010   68.0780 C   0  0  0  0  0  0  0  0  0  0  0  0
  -10.6420   10.8830   66.7360 C   0  0  0  0  0  0  0  0  0  0  0  0
  -10.5610    9.5480   66.2200 O   0  0  0  0  0  0  0  0  0  0  0  0
  -10.4150    8.4390   67.0860 C   0  0  0  0  0  0  0  0  0  0  0  0
  -10.3700    8.6170   68.4150 C   0  0  0  0  0  0  0  0  0  0  0  0
  -10.3820    9.9600   69.0470 C   0  0  0  0  0  0  0  0  0  0  0  0
  -10.2350    7.4870   69.3900 C   0  0  0  0  0  0  0  0  0  0  0  0
  -11.4310    7.4180   70.1430 O   0  0  0  0  0  0  0  0  0  0  0  0
  -11.4410    6.4830   71.1300 C   0  0  0  0  0  0  0  0  0  0  0  0
  -12.2220    6.5660   72.0750 O   0  0  0  0  0  0  0  0  0  0  0  0
  -10.5290    5.4950   71.0140 O   0  0  0  0  0  0  0  0  0  0  0  0
   -9.9680    5.1200   69.7540 C   0  0  0  0  0  0  0  0  0  0  0  0
  -10.1110    6.1840   68.7200 C   0  0  0  0  0  0  0  0  0  0  0  0
  -10.1330    6.0460   67.3760 C   0  0  0  0  0  0  0  0  0  0  0  0
  -10.3130    7.1600   66.5540 O   0  0  0  0  0  0  0  0  0  0  0  0
   -8.5700    4.9790   69.9140 O   0  0  0  0  0  0  0  0  0  0  0  0
  -10.9960   11.9300   65.6690 C   0  0  0  0  0  0  0  0  0  0  0  0
  -11.9160   11.5470   64.6840 C   0  0  0  0  0  0  0  0  0  0  0  0
  -12.4090   12.4210   63.7970 N   0  0  0  0  0  0  0  0  0  0  0  0
  -13.2430   11.9820   62.8310 F   0  0  0  0  0  0  0  0  0  0  0  0
  -12.1490   13.7090   63.8500 N   0  0  0  0  0  0  0  0  0  0  0  0
  -11.2640   14.1680   64.7330 C   0  0  0  0  0  0  0  0  0  0  0  0
  -10.5620   13.2960   65.5990 C   0  0  0  0  0  0  0  0  0  0  0  0
  -11.0350   15.5540   64.7940 C   0  0  0  0  0  0  0  0  0  0  0  0
   -9.4830   13.8800   66.3110 C   0  0  0  0  0  0  0  0  0  0  0  0
   -9.2910   15.2720   66.3710 C   0  0  0  0  0  0  0  0  0  0  0  0
   -8.2890   15.8680   67.2780 C   0  0  0  0  0  0  0  0  0  0  0  0
  -10.0940   16.1330   65.6440 C   0  0  0  0  0  0  0  0  0  0  0  0
   -7.3160   15.2190   67.6320 O   0  0  0  0  0  0  0  0  0  0  0  0
   -8.6120   17.2870   67.7070 C   0  0  0  0  0  0  0  0  0  0  0  0
   -7.5740   17.9530   68.3990 O   0  0  0  0  0  0  0  0  0  0  0  0
   -8.8080   17.9920   66.3830 C   0  0  0  0  0  0  0  0  0  0  0  0
   -8.1380   19.2520   68.8320 O   0  0  0  0  0  0  0  0  0  0  0  0
   -8.0290   20.1350   67.7910 C   0  0  0  0  0  0  0  0  0  0  0  0
   -7.5870   19.9960   66.5800 O   0  0  0  0  0  0  0  0  0  0  0  0
   -8.8080   19.4710   66.6610 C   0  0  0  0  0  0  0  0  0  0  0  0
   -9.8110   20.2530   66.0040 O   0  0  0  0  0  0  0  0  0  0  0  0
  -10.0100   17.5070   65.7240 O   0  0  0  0  0  0  0  0  0  0  0  0
  -11.7580   16.3610   64.0010 F   0  0  0  0  0  0  0  0  0  0  0  0
  -10.6670   12.3460   68.6680 O   0  0  0  0  0  0  0  0  0  0  0  0
  -11.8380   12.6160   69.5060 C   0  0  0  0  0  0  0  0  0  0  0  0
  -11.9030   11.7540   70.6400 O   0  0  0  0  0  0  0  0  0  0  0  0
  -12.9890   11.9910   71.4790 C   0  0  0  0  0  0  0  0  0  0  0  0
  -13.5750   10.9840   72.1400 C   0  0  0  0  0  0  0  0  0  0  0  0
  -13.5050   13.3740   71.7070 C   0  0  0  0  0  0  0  0  0  0  0  0
  -13.1720    9.6800   71.9990 O   0  0  0  0  0  0  0  0  0  0  0  0
  -12.6460   14.4420   71.0650 C   0  0  0  0  0  0  0  0  0  0  0  0
  -14.5330   13.6460   72.2990 O   0  0  0  0  0  0  0  0  0  0  0  0
  -11.6830   14.0510   69.9750 C   0  0  0  0  0  0  0  0  0  0  0  0
  -12.6830   15.6080   71.4280 O   0  0  0  0  0  0  0  0  0  0  0  0
  -10.8390   14.8440   69.5700 O   0  0  0  0  0  0  0  0  0  0  0  0
   -9.9900    4.7340   66.7010 C   0  0  0  0  0  0  0  0  0  0  0  0
  -10.7250    4.4390   65.5080 O   0  0  0  0  0  0  0  0  0  0  0  0
   -9.2980    4.6330   65.4460 O   0  0  0  0  0  0  0  0  0  0  0  0
  1 40  1  0  0  0  0
  1  2  2  0  0  0  0
  1  6  1  0  0  0  0
  2  3  1  0  0  0  0
  2 17  1  0  0  0  0
  3  4  1  0  0  0  0
  4  5  2  0  0  0  0
  4 15  1  0  0  0  0
  5  6  1  0  0  0  0
  5  7  1  0  0  0  0
  7  8  1  0  0  0  0
  7 13  1  0  0  0  0
  8  9  1  0  0  0  0
  9 10  2  0  0  0  0
  9 11  1  0  0  0  0
 11 12  1  0  0  0  0
 12 13  1  0  0  0  0
 12 16  1  0  0  0  0
 13 14  2  0  0  0  0
 14 15  1  0  0  0  0
 14 52  1  0  0  0  0
 17 18  2  0  0  0  0
 17 23  1  0  0  0  0
 18 19  1  0  0  0  0
 19 20  1  0  0  0  0
 19 21  2  0  0  0  0
 21 22  1  0  0  0  0
 22 23  2  0  0  0  0
 22 24  1  0  0  0  0
 23 25  1  0  0  0  0
 24 28  2  0  0  0  0
 24 39  1  0  0  0  0
 25 26  2  0  0  0  0
 26 27  1  0  0  0  0
 26 28  1  0  0  0  0
 27 29  2  0  0  0  0
 27 30  1  0  0  0  0
 28 38  1  0  0  0  0
 30 31  1  0  0  0  0
 30 32  1  0  0  0  0
 31 33  1  0  0  0  0
 32 36  1  0  0  0  0
 32 38  1  0  0  0  0
 33 34  1  0  0  0  0
 34 35  2  0  0  0  0
 34 36  1  0  0  0  0
 35 36  1  0  0  0  0
 36 37  1  0  0  0  0
 40 41  1  0  0  0  0
 41 42  1  0  0  0  0
 41 49  1  0  0  0  0
 42 43  1  0  0  0  0
 43 44  2  0  0  0  0
 43 45  1  0  0  0  0
 44 46  1  0  0  0  0
 45 47  1  0  0  0  0
 45 48  2  0  0  0  0
 47 49  1  0  0  0  0
 47 50  2  0  0  0  0
 49 51  2  0  0  0  0
 52 53  1  0  0  0  0
 52 54  1  0  0  0  0
 53 54  1  0  0  0  0
M  CHG  3  15   1  19   1  35   1
M  END