
 OpenBabel10112019383D

 52 60  0  0  1  0  0  0  0  0999 V2000
  -10.6580   15.5550   67.2120 C   0  0  0  0  0  0  0  0  0  0  0  0
  -10.7760   16.7230   67.8780 C   0  0  0  0  0  0  0  0  0  0  0  0
  -11.4760   16.8560   69.0730 O   0  0  0  0  0  0  0  0  0  0  0  0
  -11.9200   15.7180   69.7260 C   0  0  0  0  0  0  0  0  0  0  0  0
  -11.7940   14.5000   69.1760 C   0  0  0  0  0  0  0  0  0  0  0  0
  -11.2210   14.2850   67.8140 C   0  0  0  0  0  0  0  0  0  0  0  0
  -12.1930   13.3230   70.0000 C   0  0  0  0  0  0  0  0  0  0  0  0
  -12.0670   12.1220   69.5390 N   0  0  0  0  0  0  0  0  0  0  0  0
  -12.4000   11.0520   70.3500 C   0  0  0  0  0  0  0  0  0  0  0  0
  -12.2370    9.9230   69.9070 O   0  0  0  0  0  0  0  0  0  0  0  0
  -12.9030   11.1910   71.6300 N   0  0  0  0  0  0  0  0  0  0  0  0
  -13.0440   12.3770   72.1120 C   0  0  0  0  0  0  0  0  0  0  0  0
  -12.7120   13.5850   71.3610 C   0  0  0  0  0  0  0  0  0  0  0  0
  -12.8400   14.8510   71.8040 C   0  0  0  0  0  0  0  0  0  0  0  0
  -12.4700   15.8970   70.9700 N   0  0  0  0  0  0  0  0  0  0  0  0
  -10.0460   17.9420   67.4940 C   0  0  0  0  0  0  0  0  0  0  0  0
  -10.7810   18.7620   66.7080 N   0  0  0  0  0  0  0  0  0  0  0  0
  -10.1840   19.8830   66.3050 C   0  0  0  0  0  0  0  0  0  0  0  0
   -8.9280   20.2450   66.5850 N   0  0  0  0  0  0  0  0  0  0  0  0
   -8.2120   19.4180   67.3500 C   0  0  0  0  0  0  0  0  0  0  0  0
   -8.7190   18.2150   67.8620 C   0  0  0  0  0  0  0  0  0  0  0  0
   -6.8970   19.7680   67.6350 C   0  0  0  0  0  0  0  0  0  0  0  0
   -7.8810   17.3920   68.6590 C   0  0  0  0  0  0  0  0  0  0  0  0
   -6.5630   17.7780   68.9280 C   0  0  0  0  0  0  0  0  0  0  0  0
   -6.0670   18.9650   68.4200 C   0  0  0  0  0  0  0  0  0  0  0  0
   -5.6880   16.9160   69.7250 C   0  0  0  0  0  0  0  0  0  0  0  0
   -4.7890   19.4080   68.5740 O   0  0  0  0  0  0  0  0  0  0  0  0
   -4.0190   18.8570   69.6390 C   0  0  0  0  0  0  0  0  0  0  0  0
   -4.3140   17.4390   70.0730 C   0  0  0  0  0  0  0  0  0  0  0  0
   -3.5520   16.7800   70.7690 O   0  0  0  0  0  0  0  0  0  0  0  0
   -6.0600   15.8220   70.1210 O   0  0  0  0  0  0  0  0  0  0  0  0
   -4.0010   19.8130   70.7970 C   0  0  0  0  0  0  0  0  0  0  0  0
   -4.6580   19.3500   72.0030 O   0  0  0  0  0  0  0  0  0  0  0  0
   -2.7580   20.4900   70.9810 O   0  0  0  0  0  0  0  0  0  0  0  0
   -3.8280   21.2630   70.7040 C   0  0  0  0  0  0  0  0  0  0  0  0
   -4.3210   22.1530   71.3700 O   0  0  0  0  0  0  0  0  0  0  0  0
   -9.9070   15.4750   66.0430 O   0  0  0  0  0  0  0  0  0  0  0  0
  -10.0440   14.2760   65.2780 C   0  0  0  0  0  0  0  0  0  0  0  0
   -9.8890   13.1210   66.1080 O   0  0  0  0  0  0  0  0  0  0  0  0
   -9.8490   11.9270   65.4090 C   0  0  0  0  0  0  0  0  0  0  0  0
   -9.1220   10.8970   65.8650 C   0  0  0  0  0  0  0  0  0  0  0  0
  -10.6400   11.7590   64.1480 C   0  0  0  0  0  0  0  0  0  0  0  0
  -11.5900   12.9090   63.8620 C   0  0  0  0  0  0  0  0  0  0  0  0
  -10.5290   10.8150   63.3840 O   0  0  0  0  0  0  0  0  0  0  0  0
  -11.4190   14.1930   64.6380 C   0  0  0  0  0  0  0  0  0  0  0  0
  -12.4570   12.8120   63.0100 O   0  0  0  0  0  0  0  0  0  0  0  0
  -12.3130   15.0210   64.7110 O   0  0  0  0  0  0  0  0  0  0  0  0
   -8.3180   10.9050   67.1240 C   0  0  0  0  0  0  0  0  0  0  0  0
   -9.1510   10.4700   68.2300 N   0  0  0  0  0  0  0  0  0  0  0  0
  -13.3450   15.2330   73.1440 C   0  0  0  0  0  0  0  0  0  0  0  0
  -12.5120   15.1500   74.3100 O   0  0  0  0  0  0  0  0  0  0  0  0
  -12.9160   16.4370   73.8040 O   0  0  0  0  0  0  0  0  0  0  0  0
  1 37  1  0  0  0  0
  1  2  2  0  0  0  0
  1  6  1  0  0  0  0
  2  3  1  0  0  0  0
  2 16  1  0  0  0  0
  3  4  1  0  0  0  0
  4  5  2  0  0  0  0
  4 15  1  0  0  0  0
  5  6  1  0  0  0  0
  5  7  1  0  0  0  0
  7  8  2  0  0  0  0
  7 13  1  0  0  0  0
  8  9  1  0  0  0  0
  9 10  2  0  0  0  0
  9 11  1  0  0  0  0
 11 12  2  0  0  0  0
 12 13  1  0  0  0  0
 13 14  2  0  0  0  0
 14 15  1  0  0  0  0
 14 50  1  0  0  0  0
 16 17  2  0  0  0  0
 16 21  1  0  0  0  0
 17 18  1  0  0  0  0
 18 19  2  0  0  0  0
 19 20  1  0  0  0  0
 20 21  2  0  0  0  0
 20 22  1  0  0  0  0
 21 23  1  0  0  0  0
 22 25  2  0  0  0  0
 23 24  2  0  0  0  0
 24 25  1  0  0  0  0
 24 26  1  0  0  0  0
 25 27  1  0  0  0  0
 26 29  1  0  0  0  0
 26 31  2  0  0  0  0
 27 28  1  0  0  0  0
 28 29  1  0  0  0  0
 28 32  1  0  0  0  0
 29 30  2  0  0  0  0
 32 33  1  0  0  0  0
 32 34  1  0  0  0  0
 32 35  1  0  0  0  0
 34 35  1  0  0  0  0
 35 36  2  0  0  0  0
 37 38  1  0  0  0  0
 38 39  1  0  0  0  0
 38 45  1  0  0  0  0
 39 40  1  0  0  0  0
 40 41  2  0  0  0  0
 40 42  1  0  0  0  0
 41 48  1  0  0  0  0
 42 43  1  0  0  0  0
 42 44  2  0  0  0  0
 43 45  1  0  0  0  0
 43 46  2  0  0  0  0
 45 47  2  0  0  0  0
 48 49  1  0  0  0  0
 50 51  1  0  0  0  0
 50 52  1  0  0  0  0
 51 52  1  0  0  0  0
M  END
