
 OpenBabel09252006333D

 52 60  0  0  1  0  0  0  0  0999 V2000
  -10.3330   15.4300   67.5260 C   0  0  0  0  0  0  0  0  0  0  0  0
  -10.4710   16.6480   68.0990 C   0  0  0  0  0  0  0  0  0  0  0  0
  -11.2410   16.8830   69.2340 O   0  0  0  0  0  0  0  0  0  0  0  0
  -11.8140   15.8060   69.8910 C   0  0  0  0  0  0  0  0  0  0  0  0
  -11.7850   14.5710   69.3660 C   0  0  0  0  0  0  0  0  0  0  0  0
  -11.1040   14.2510   68.0760 C   0  0  0  0  0  0  0  0  0  0  0  0
  -12.3430   13.4560   70.1760 C   0  0  0  0  0  0  0  0  0  0  0  0
  -12.3790   12.2540   69.7020 N   0  0  0  0  0  0  0  0  0  0  0  0
  -12.8600   11.2340   70.4960 C   0  0  0  0  0  0  0  0  0  0  0  0
  -12.9790   10.1230   69.9950 O   0  0  0  0  0  0  0  0  0  0  0  0
  -13.1830   11.3970   71.8300 N   0  0  0  0  0  0  0  0  0  0  0  0
  -13.1630   12.5850   72.3270 C   0  0  0  0  0  0  0  0  0  0  0  0
  -12.7880   13.7680   71.5510 C   0  0  0  0  0  0  0  0  0  0  0  0
  -12.7740   15.0420   71.9890 C   0  0  0  0  0  0  0  0  0  0  0  0
  -12.3530   16.0480   71.1300 N   0  0  0  0  0  0  0  0  0  0  0  0
   -9.7900   17.8480   67.5910 C   0  0  0  0  0  0  0  0  0  0  0  0
  -10.5780   18.5460   66.7370 N   0  0  0  0  0  0  0  0  0  0  0  0
  -10.0730   19.6850   66.2740 C   0  0  0  0  0  0  0  0  0  0  0  0
   -8.8700   20.1770   66.5740 N   0  0  0  0  0  0  0  0  0  0  0  0
   -8.1060   19.4690   67.4080 C   0  0  0  0  0  0  0  0  0  0  0  0
   -8.4830   18.2430   67.9860 C   0  0  0  0  0  0  0  0  0  0  0  0
   -6.8670   20.0180   67.6950 C   0  0  0  0  0  0  0  0  0  0  0  0
   -7.5420   17.5750   68.8610 C   0  0  0  0  0  0  0  0  0  0  0  0
   -7.7550   16.2400   69.2810 N   0  0  0  0  0  0  0  0  0  0  0  0
   -6.2810   18.1730   69.1120 C   0  0  0  0  0  0  0  0  0  0  0  0
   -5.9600   19.4020   68.5520 C   0  0  0  0  0  0  0  0  0  0  0  0
   -5.2860   17.5420   70.0040 C   0  0  0  0  0  0  0  0  0  0  0  0
   -4.7990   20.0920   68.7540 O   0  0  0  0  0  0  0  0  0  0  0  0
   -3.9680   19.6840   69.8430 C   0  0  0  0  0  0  0  0  0  0  0  0
   -3.9350   18.1990   70.0770 C   0  0  0  0  0  0  0  0  0  0  0  0
   -2.9280   17.5460   70.3140 O   0  0  0  0  0  0  0  0  0  0  0  0
   -5.5240   16.5490   70.6770 O   0  0  0  0  0  0  0  0  0  0  0  0
   -4.3460   20.4410   71.0830 C   0  0  0  0  0  0  0  0  0  0  0  0
   -5.6790   20.9960   71.1360 O   0  0  0  0  0  0  0  0  0  0  0  0
   -3.8610   19.9000   72.3190 O   0  0  0  0  0  0  0  0  0  0  0  0
   -3.3230   21.0540   71.9120 C   0  0  0  0  0  0  0  0  0  0  0  0
   -2.1750   21.3750   71.6740 O   0  0  0  0  0  0  0  0  0  0  0  0
   -9.5450   15.2660   66.3930 O   0  0  0  0  0  0  0  0  0  0  0  0
   -9.9490   14.2770   65.4380 C   0  0  0  0  0  0  0  0  0  0  0  0
  -10.0700   13.0080   66.0700 O   0  0  0  0  0  0  0  0  0  0  0  0
  -10.3830   11.9710   65.2090 C   0  0  0  0  0  0  0  0  0  0  0  0
   -9.8060   10.7720   65.3580 C   0  0  0  0  0  0  0  0  0  0  0  0
  -11.3860   12.1520   64.1230 C   0  0  0  0  0  0  0  0  0  0  0  0
   -8.8670   10.5340   66.3290 O   0  0  0  0  0  0  0  0  0  0  0  0
  -11.8480   13.5840   63.9400 C   0  0  0  0  0  0  0  0  0  0  0  0
  -11.7940   11.2500   63.4110 O   0  0  0  0  0  0  0  0  0  0  0  0
  -11.2890   14.6660   64.8340 C   0  0  0  0  0  0  0  0  0  0  0  0
  -12.6230   13.8750   63.0410 O   0  0  0  0  0  0  0  0  0  0  0  0
  -11.8780   15.7270   64.9810 O   0  0  0  0  0  0  0  0  0  0  0  0
  -13.1480   15.4670   73.3570 C   0  0  0  0  0  0  0  0  0  0  0  0
  -12.2500   15.3210   74.4700 O   0  0  0  0  0  0  0  0  0  0  0  0
  -12.5820   16.6330   73.9720 O   0  0  0  0  0  0  0  0  0  0  0  0
  1 38  1  0  0  0  0
  1  2  2  0  0  0  0
  1  6  1  0  0  0  0
  2  3  1  0  0  0  0
  2 16  1  0  0  0  0
  3  4  1  0  0  0  0
  4  5  2  0  0  0  0
  4 15  1  0  0  0  0
  5  6  1  0  0  0  0
  5  7  1  0  0  0  0
  7  8  2  0  0  0  0
  7 13  1  0  0  0  0
  8  9  1  0  0  0  0
  9 10  2  0  0  0  0
  9 11  1  0  0  0  0
 11 12  2  0  0  0  0
 12 13  1  0  0  0  0
 13 14  2  0  0  0  0
 14 15  1  0  0  0  0
 14 50  1  0  0  0  0
 16 17  2  0  0  0  0
 16 21  1  0  0  0  0
 17 18  1  0  0  0  0
 18 19  2  0  0  0  0
 19 20  1  0  0  0  0
 20 21  2  0  0  0  0
 20 22  1  0  0  0  0
 21 23  1  0  0  0  0
 22 26  2  0  0  0  0
 23 24  1  0  0  0  0
 23 25  2  0  0  0  0
 25 26  1  0  0  0  0
 25 27  1  0  0  0  0
 26 28  1  0  0  0  0
 27 30  1  0  0  0  0
 27 32  2  0  0  0  0
 28 29  1  0  0  0  0
 29 30  1  0  0  0  0
 29 33  1  0  0  0  0
 30 31  2  0  0  0  0
 33 34  1  0  0  0  0
 33 35  1  0  0  0  0
 33 36  1  0  0  0  0
 35 36  1  0  0  0  0
 36 37  2  0  0  0  0
 38 39  1  0  0  0  0
 39 40  1  0  0  0  0
 39 47  1  0  0  0  0
 40 41  1  0  0  0  0
 41 42  2  0  0  0  0
 41 43  1  0  0  0  0
 42 44  1  0  0  0  0
 43 45  1  0  0  0  0
 43 46  2  0  0  0  0
 45 47  1  0  0  0  0
 45 48  2  0  0  0  0
 47 49  2  0  0  0  0
 50 51  1  0  0  0  0
 50 52  1  0  0  0  0
 51 52  1  0  0  0  0
M  END
