
 OpenBabel11212016303D

 54 62  0  0  1  0  0  0  0  0999 V2000
  -10.8670   15.6760   67.4340 C   0  0  0  0  0  0  0  0  0  0  0  0
  -10.5380   16.8290   68.0700 C   0  0  0  0  0  0  0  0  0  0  0  0
  -10.8570   17.0340   69.4240 O   0  0  0  0  0  0  0  0  0  0  0  0
  -11.5910   16.0820   70.1410 C   0  0  0  0  0  0  0  0  0  0  0  0
  -11.9040   14.8990   69.5840 C   0  0  0  0  0  0  0  0  0  0  0  0
  -11.5610   14.5600   68.1700 C   0  0  0  0  0  0  0  0  0  0  0  0
  -12.6730   13.8430   70.3210 C   0  0  0  0  0  0  0  0  0  0  0  0
  -11.8410   12.7080   70.4610 O   0  0  0  0  0  0  0  0  0  0  0  0
  -12.4280   11.6290   71.0530 C   0  0  0  0  0  0  0  0  0  0  0  0
  -11.9590   10.5100   70.9570 O   0  0  0  0  0  0  0  0  0  0  0  0
  -13.5910   11.9030   71.6920 O   0  0  0  0  0  0  0  0  0  0  0  0
  -13.6950   13.1380   72.3970 C   0  0  0  0  0  0  0  0  0  0  0  0
  -13.0090   14.2600   71.6950 C   0  0  0  0  0  0  0  0  0  0  0  0
  -12.6950   15.4740   72.2000 C   0  0  0  0  0  0  0  0  0  0  0  0
  -11.9890   16.3930   71.4280 O   0  0  0  0  0  0  0  0  0  0  0  0
  -15.0180   13.4400   72.4420 F   0  0  0  0  0  0  0  0  0  0  0  0
   -9.8390   17.9810   67.3940 C   0  0  0  0  0  0  0  0  0  0  0  0
  -10.5440   18.7520   66.4650 C   0  0  0  0  0  0  0  0  0  0  0  0
  -10.0050   19.8370   65.9000 N   0  0  0  0  0  0  0  0  0  0  0  0
  -10.7400   20.5520   65.0260 F   0  0  0  0  0  0  0  0  0  0  0  0
   -8.7860   20.2480   66.1750 N   0  0  0  0  0  0  0  0  0  0  0  0
   -8.0310   19.5570   67.0310 C   0  0  0  0  0  0  0  0  0  0  0  0
   -8.4970   18.3780   67.6550 C   0  0  0  0  0  0  0  0  0  0  0  0
   -6.7550   20.0420   67.3410 C   0  0  0  0  0  0  0  0  0  0  0  0
   -7.5910   17.7000   68.5070 C   0  0  0  0  0  0  0  0  0  0  0  0
   -6.3080   18.1960   68.7710 C   0  0  0  0  0  0  0  0  0  0  0  0
   -5.4140   17.4590   69.6670 C   0  0  0  0  0  0  0  0  0  0  0  0
   -5.9020   19.4040   68.2410 C   0  0  0  0  0  0  0  0  0  0  0  0
   -5.7420   16.3720   70.1160 O   0  0  0  0  0  0  0  0  0  0  0  0
   -4.0880   18.1220   69.9570 C   0  0  0  0  0  0  0  0  0  0  0  0
   -3.1030   17.4460   70.1960 O   0  0  0  0  0  0  0  0  0  0  0  0
   -4.1380   19.6310   69.8520 C   0  0  0  0  0  0  0  0  0  0  0  0
   -4.7510   20.0460   68.6080 O   0  0  0  0  0  0  0  0  0  0  0  0
   -6.3570   21.1980   66.7860 F   0  0  0  0  0  0  0  0  0  0  0  0
   -4.7570   20.2620   71.0810 C   0  0  0  0  0  0  0  0  0  0  0  0
   -6.1670   20.5360   71.0010 O   0  0  0  0  0  0  0  0  0  0  0  0
   -4.3040   19.7500   72.3430 O   0  0  0  0  0  0  0  0  0  0  0  0
   -4.0330   21.0290   72.0780 C   0  0  0  0  0  0  0  0  0  0  0  0
   -2.9880   21.6620   72.0360 O   0  0  0  0  0  0  0  0  0  0  0  0
  -10.5350   15.4560   66.1000 O   0  0  0  0  0  0  0  0  0  0  0  0
   -9.7240   14.2960   65.7680 C   0  0  0  0  0  0  0  0  0  0  0  0
   -8.9570   13.9240   66.9040 O   0  0  0  0  0  0  0  0  0  0  0  0
   -8.4370   12.6430   66.8840 C   0  0  0  0  0  0  0  0  0  0  0  0
   -7.2050   12.3930   67.3420 C   0  0  0  0  0  0  0  0  0  0  0  0
   -9.2790   11.5000   66.4420 C   0  0  0  0  0  0  0  0  0  0  0  0
   -6.3660   13.3820   67.7880 O   0  0  0  0  0  0  0  0  0  0  0  0
  -10.6470   11.9640   66.0050 C   0  0  0  0  0  0  0  0  0  0  0  0
   -8.9330   10.3370   66.3930 O   0  0  0  0  0  0  0  0  0  0  0  0
  -10.7190   13.2630   65.2580 C   0  0  0  0  0  0  0  0  0  0  0  0
  -11.6700   11.4220   66.3860 O   0  0  0  0  0  0  0  0  0  0  0  0
  -11.5370   13.4540   64.3700 O   0  0  0  0  0  0  0  0  0  0  0  0
  -13.0350   15.8930   73.5800 C   0  0  0  0  0  0  0  0  0  0  0  0
  -12.2400   15.4690   74.6940 O   0  0  0  0  0  0  0  0  0  0  0  0
  -12.2160   16.8470   74.2740 O   0  0  0  0  0  0  0  0  0  0  0  0
  1 40  1  0  0  0  0
  1  2  2  0  0  0  0
  1  6  1  0  0  0  0
  2  3  1  0  0  0  0
  2 17  1  0  0  0  0
  3  4  1  0  0  0  0
  4  5  2  0  0  0  0
  4 15  1  0  0  0  0
  5  6  1  0  0  0  0
  5  7  1  0  0  0  0
  7  8  1  0  0  0  0
  7 13  1  0  0  0  0
  8  9  1  0  0  0  0
  9 10  2  0  0  0  0
  9 11  1  0  0  0  0
 11 12  1  0  0  0  0
 12 13  1  0  0  0  0
 12 16  1  0  0  0  0
 13 14  2  0  0  0  0
 14 15  1  0  0  0  0
 14 52  1  0  0  0  0
 17 18  2  0  0  0  0
 17 23  1  0  0  0  0
 18 19  1  0  0  0  0
 19 20  1  0  0  0  0
 19 21  2  0  0  0  0
 21 22  1  0  0  0  0
 22 23  2  0  0  0  0
 22 24  1  0  0  0  0
 23 25  1  0  0  0  0
 24 28  2  0  0  0  0
 24 34  1  0  0  0  0
 25 26  2  0  0  0  0
 26 27  1  0  0  0  0
 26 28  1  0  0  0  0
 27 29  2  0  0  0  0
 27 30  1  0  0  0  0
 28 33  1  0  0  0  0
 30 31  2  0  0  0  0
 30 32  1  0  0  0  0
 32 33  1  0  0  0  0
 32 35  1  0  0  0  0
 35 36  1  0  0  0  0
 35 37  1  0  0  0  0
 35 38  1  0  0  0  0
 37 38  1  0  0  0  0
 38 39  2  0  0  0  0
 40 41  1  0  0  0  0
 41 42  1  0  0  0  0
 41 49  1  0  0  0  0
 42 43  1  0  0  0  0
 43 44  2  0  0  0  0
 43 45  1  0  0  0  0
 44 46  1  0  0  0  0
 45 47  1  0  0  0  0
 45 48  2  0  0  0  0
 47 49  1  0  0  0  0
 47 50  2  0  0  0  0
 49 51  2  0  0  0  0
 52 53  1  0  0  0  0
 52 54  1  0  0  0  0
 53 54  1  0  0  0  0
M  CHG  2  15   1  19   1
M  END