
 OpenBabel11222000413D

 55 63  0  0  1  0  0  0  0  0999 V2000
  -11.0400   15.7100   67.3040 C   0  0  0  0  0  0  0  0  0  0  0  0
  -10.4600   16.7500   67.9640 C   0  0  0  0  0  0  0  0  0  0  0  0
  -10.5670   16.8640   69.3690 O   0  0  0  0  0  0  0  0  0  0  0  0
  -11.3260   15.9480   70.1150 C   0  0  0  0  0  0  0  0  0  0  0  0
  -11.8870   14.8820   69.5270 C   0  0  0  0  0  0  0  0  0  0  0  0
  -11.7990   14.6460   68.0600 C   0  0  0  0  0  0  0  0  0  0  0  0
  -12.6610   13.8410   70.2870 C   0  0  0  0  0  0  0  0  0  0  0  0
  -11.9360   12.6290   70.1780 O   0  0  0  0  0  0  0  0  0  0  0  0
  -12.4760   11.5360   70.7760 C   0  0  0  0  0  0  0  0  0  0  0  0
  -12.1700   10.4070   70.4240 O   0  0  0  0  0  0  0  0  0  0  0  0
  -13.3550   11.7870   71.7750 O   0  0  0  0  0  0  0  0  0  0  0  0
  -13.4700   13.0520   72.4220 C   0  0  0  0  0  0  0  0  0  0  0  0
  -12.7270   14.1420   71.7290 C   0  0  0  0  0  0  0  0  0  0  0  0
  -12.1700   15.2490   72.2720 C   0  0  0  0  0  0  0  0  0  0  0  0
  -11.4760   16.1570   71.4720 O   0  0  0  0  0  0  0  0  0  0  0  0
  -14.8230   13.4570   72.3830 O   0  0  0  0  0  0  0  0  0  0  0  0
   -9.6280   17.8390   67.3000 C   0  0  0  0  0  0  0  0  0  0  0  0
  -10.2890   18.7870   66.5140 C   0  0  0  0  0  0  0  0  0  0  0  0
   -9.6370   19.7900   65.9230 N   0  0  0  0  0  0  0  0  0  0  0  0
  -10.3400   20.7310   65.2640 F   0  0  0  0  0  0  0  0  0  0  0  0
   -8.3290   19.8930   65.9450 N   0  0  0  0  0  0  0  0  0  0  0  0
   -7.5870   19.0250   66.6310 C   0  0  0  0  0  0  0  0  0  0  0  0
   -8.2030   17.9770   67.3710 C   0  0  0  0  0  0  0  0  0  0  0  0
   -6.1800   19.1790   66.6400 C   0  0  0  0  0  0  0  0  0  0  0  0
   -7.3440   17.1620   68.1460 C   0  0  0  0  0  0  0  0  0  0  0  0
   -5.9600   17.3850   68.2010 C   0  0  0  0  0  0  0  0  0  0  0  0
   -5.1300   16.5940   69.1080 C   0  0  0  0  0  0  0  0  0  0  0  0
   -5.3660   18.3870   67.4610 C   0  0  0  0  0  0  0  0  0  0  0  0
   -5.5200   15.5040   69.4980 O   0  0  0  0  0  0  0  0  0  0  0  0
   -3.8700   17.2630   69.6190 C   0  0  0  0  0  0  0  0  0  0  0  0
   -3.3730   16.9030   70.6770 O   0  0  0  0  0  0  0  0  0  0  0  0
   -3.4400   18.5030   68.8610 C   0  0  0  0  0  0  0  0  0  0  0  0
   -4.0250   18.6400   67.5510 O   0  0  0  0  0  0  0  0  0  0  0  0
   -3.6120   19.7360   69.7280 C   0  0  0  0  0  0  0  0  0  0  0  0
   -4.9100   19.9230   70.3310 O   0  0  0  0  0  0  0  0  0  0  0  0
   -2.4910   20.0430   70.5720 O   0  0  0  0  0  0  0  0  0  0  0  0
   -2.7960   20.9350   69.6260 C   0  0  0  0  0  0  0  0  0  0  0  0
   -2.1560   21.3900   68.6890 O   0  0  0  0  0  0  0  0  0  0  0  0
   -5.5960   20.2560   65.7950 C   0  0  0  0  0  0  0  0  0  0  0  0
   -5.1670   21.4020   66.2050 N   0  0  0  0  0  0  0  0  0  0  0  0
  -11.0250   15.6010   65.9120 O   0  0  0  0  0  0  0  0  0  0  0  0
  -10.7130   14.3020   65.3270 C   0  0  0  0  0  0  0  0  0  0  0  0
  -10.4550   13.3030   66.3090 O   0  0  0  0  0  0  0  0  0  0  0  0
  -10.0120   12.1270   65.7240 C   0  0  0  0  0  0  0  0  0  0  0  0
   -8.8380   11.5700   66.0430 C   0  0  0  0  0  0  0  0  0  0  0  0
  -10.8560   11.5030   64.6720 C   0  0  0  0  0  0  0  0  0  0  0  0
   -7.9550   12.1420   66.9260 O   0  0  0  0  0  0  0  0  0  0  0  0
  -12.0600   12.3720   64.3600 C   0  0  0  0  0  0  0  0  0  0  0  0
  -10.5780   10.4980   64.0500 O   0  0  0  0  0  0  0  0  0  0  0  0
  -11.8610   13.8790   64.4080 C   0  0  0  0  0  0  0  0  0  0  0  0
  -13.1610   11.8900   64.1660 O   0  0  0  0  0  0  0  0  0  0  0  0
  -12.5050   14.6590   63.7180 O   0  0  0  0  0  0  0  0  0  0  0  0
  -12.2230   15.5840   73.7170 C   0  0  0  0  0  0  0  0  0  0  0  0
  -12.1000   16.9470   74.1460 O   0  0  0  0  0  0  0  0  0  0  0  0
  -13.3650   16.2700   74.2610 O   0  0  0  0  0  0  0  0  0  0  0  0
  1 41  1  0  0  0  0
  1  2  2  0  0  0  0
  1  6  1  0  0  0  0
  2  3  1  0  0  0  0
  2 17  1  0  0  0  0
  3  4  1  0  0  0  0
  4  5  2  0  0  0  0
  4 15  1  0  0  0  0
  5  6  1  0  0  0  0
  5  7  1  0  0  0  0
  7  8  1  0  0  0  0
  7 13  1  0  0  0  0
  8  9  1  0  0  0  0
  9 10  2  0  0  0  0
  9 11  1  0  0  0  0
 11 12  1  0  0  0  0
 12 13  1  0  0  0  0
 12 16  1  0  0  0  0
 13 14  2  0  0  0  0
 14 15  1  0  0  0  0
 14 53  1  0  0  0  0
 17 18  2  0  0  0  0
 17 23  1  0  0  0  0
 18 19  1  0  0  0  0
 19 20  1  0  0  0  0
 19 21  2  0  0  0  0
 21 22  1  0  0  0  0
 22 23  2  0  0  0  0
 22 24  1  0  0  0  0
 23 25  1  0  0  0  0
 24 28  2  0  0  0  0
 24 39  1  0  0  0  0
 25 26  2  0  0  0  0
 26 27  1  0  0  0  0
 26 28  1  0  0  0  0
 27 29  2  0  0  0  0
 27 30  1  0  0  0  0
 28 33  1  0  0  0  0
 30 31  2  0  0  0  0
 30 32  1  0  0  0  0
 32 33  1  0  0  0  0
 32 34  1  0  0  0  0
 34 35  1  0  0  0  0
 34 36  1  0  0  0  0
 34 37  1  0  0  0  0
 36 37  1  0  0  0  0
 37 38  2  0  0  0  0
 39 40  2  0  0  0  0
 41 42  1  0  0  0  0
 42 43  1  0  0  0  0
 42 50  1  0  0  0  0
 43 44  1  0  0  0  0
 44 45  2  0  0  0  0
 44 46  1  0  0  0  0
 45 47  1  0  0  0  0
 46 48  1  0  0  0  0
 46 49  2  0  0  0  0
 48 50  1  0  0  0  0
 48 51  2  0  0  0  0
 50 52  2  0  0  0  0
 53 54  1  0  0  0  0
 53 55  1  0  0  0  0
 54 55  1  0  0  0  0
M  CHG  2  15   1  19   1
M  END