
 OpenBabel11242000423D

 53 62  0  0  1  0  0  0  0  0999 V2000
  -11.0420   15.6250   67.3340 C   0  0  0  0  0  0  0  0  0  0  0  0
  -10.6530   16.7050   68.0390 C   0  0  0  0  0  0  0  0  0  0  0  0
  -10.9230   16.8770   69.3860 O   0  0  0  0  0  0  0  0  0  0  0  0
  -11.7150   15.9440   70.0360 C   0  0  0  0  0  0  0  0  0  0  0  0
  -12.1260   14.8080   69.4430 C   0  0  0  0  0  0  0  0  0  0  0  0
  -11.8010   14.5130   68.0140 C   0  0  0  0  0  0  0  0  0  0  0  0
  -12.9880   13.8200   70.1980 C   0  0  0  0  0  0  0  0  0  0  0  0
  -12.3050   12.5450   70.2640 N   0  0  0  0  0  0  0  0  0  0  0  0
  -12.6580   11.5720   71.1380 C   0  0  0  0  0  0  0  0  0  0  0  0
  -12.1290    9.9680   70.9590 P   0  0  0  0  0  0  0  0  0  0  0  0
  -13.4450   11.9230   72.1770 N   0  0  0  0  0  0  0  0  0  0  0  0
  -14.1070   13.1930   72.3230 C   0  0  0  0  0  0  0  0  0  0  0  0
  -13.3060   14.2340   71.6110 C   0  0  0  0  0  0  0  0  0  0  0  0
  -12.8590   15.4040   72.1280 C   0  0  0  0  0  0  0  0  0  0  0  0
  -12.0890   16.2320   71.3180 N   0  0  0  0  0  0  0  0  0  0  0  0
   -9.8680   17.7970   67.4460 C   0  0  0  0  0  0  0  0  0  0  0  0
  -10.5450   18.7180   66.6600 C   0  0  0  0  0  0  0  0  0  0  0  0
   -9.8930   19.7460   66.1120 N   0  0  0  0  0  0  0  0  0  0  0  0
  -10.5770   20.6160   65.3430 F   0  0  0  0  0  0  0  0  0  0  0  0
   -8.6020   19.9530   66.2970 N   0  0  0  0  0  0  0  0  0  0  0  0
   -7.8880   19.1020   67.0500 C   0  0  0  0  0  0  0  0  0  0  0  0
   -8.4860   17.9740   67.6470 C   0  0  0  0  0  0  0  0  0  0  0  0
   -6.5150   19.3480   67.2650 C   0  0  0  0  0  0  0  0  0  0  0  0
   -7.6860   17.0910   68.4080 C   0  0  0  0  0  0  0  0  0  0  0  0
   -6.3180   17.3240   68.5750 C   0  0  0  0  0  0  0  0  0  0  0  0
   -5.7250   18.4320   67.9940 C   0  0  0  0  0  0  0  0  0  0  0  0
   -5.5080   16.4100   69.3890 C   0  0  0  0  0  0  0  0  0  0  0  0
   -4.3910   18.7350   68.1200 O   0  0  0  0  0  0  0  0  0  0  0  0
   -3.5340   17.7550   68.7520 C   0  0  0  0  0  0  0  0  0  0  0  0
   -4.1330   16.8880   69.7740 C   0  0  0  0  0  0  0  0  0  0  0  0
   -2.5420   17.1650   67.9510 O   0  0  0  0  0  0  0  0  0  0  0  0
   -2.0960   18.1230   68.9680 C   0  0  0  0  0  0  0  0  0  0  0  0
   -3.6120   16.6230   70.8420 O   0  0  0  0  0  0  0  0  0  0  0  0
   -1.9500   19.5430   68.5480 O   0  0  0  0  0  0  0  0  0  0  0  0
   -0.9160   18.7480   68.4540 C   0  0  0  0  0  0  0  0  0  0  0  0
    0.2330   18.8450   68.8480 O   0  0  0  0  0  0  0  0  0  0  0  0
   -5.9400   15.3330   69.7620 O   0  0  0  0  0  0  0  0  0  0  0  0
   -5.8650   20.4020   66.5750 N   0  0  0  0  0  0  0  0  0  0  0  0
  -10.7980   15.5630   65.9740 O   0  0  0  0  0  0  0  0  0  0  0  0
  -10.4320   14.3110   65.3720 C   0  0  0  0  0  0  0  0  0  0  0  0
  -10.0650   13.3890   66.3870 O   0  0  0  0  0  0  0  0  0  0  0  0
   -9.7670   12.1430   65.8610 C   0  0  0  0  0  0  0  0  0  0  0  0
   -8.6120   11.5280   66.1420 C   0  0  0  0  0  0  0  0  0  0  0  0
  -10.7450   11.4870   64.9510 C   0  0  0  0  0  0  0  0  0  0  0  0
   -7.6410   12.1140   66.9120 O   0  0  0  0  0  0  0  0  0  0  0  0
  -11.9000   12.4020   64.5940 C   0  0  0  0  0  0  0  0  0  0  0  0
  -10.6190   10.3770   64.4670 O   0  0  0  0  0  0  0  0  0  0  0  0
  -11.6570   13.8920   64.5790 C   0  0  0  0  0  0  0  0  0  0  0  0
  -13.0150   11.9650   64.3640 O   0  0  0  0  0  0  0  0  0  0  0  0
  -12.3790   14.6640   63.9540 O   0  0  0  0  0  0  0  0  0  0  0  0
  -13.1260   15.8780   73.5020 C   0  0  0  0  0  0  0  0  0  0  0  0
  -12.1420   16.6830   74.1560 N   0  0  0  0  0  0  0  0  0  0  0  0
  -12.2350   15.5040   74.5430 N   0  0  0  0  0  0  0  0  0  0  0  0
  1 39  1  0  0  0  0
  1  2  2  0  0  0  0
  1  6  1  0  0  0  0
  2  3  1  0  0  0  0
  2 16  1  0  0  0  0
  3  4  1  0  0  0  0
  4  5  2  0  0  0  0
  4 15  1  0  0  0  0
  5  6  1  0  0  0  0
  5  7  1  0  0  0  0
  7  8  1  0  0  0  0
  7 13  1  0  0  0  0
  8  9  1  0  0  0  0
  9 10  2  0  0  0  0
  9 11  1  0  0  0  0
 11 12  1  0  0  0  0
 12 13  1  0  0  0  0
 13 14  2  0  0  0  0
 14 15  1  0  0  0  0
 14 51  1  0  0  0  0
 16 17  2  0  0  0  0
 16 22  1  0  0  0  0
 17 18  1  0  0  0  0
 18 19  1  0  0  0  0
 18 20  2  0  0  0  0
 20 21  1  0  0  0  0
 21 22  2  0  0  0  0
 21 23  1  0  0  0  0
 22 24  1  0  0  0  0
 23 26  2  0  0  0  0
 23 38  1  0  0  0  0
 24 25  2  0  0  0  0
 25 26  1  0  0  0  0
 25 27  1  0  0  0  0
 26 28  1  0  0  0  0
 27 30  1  0  0  0  0
 27 37  2  0  0  0  0
 28 29  1  0  0  0  0
 29 30  1  0  0  0  0
 29 31  1  0  0  0  0
 29 32  1  0  0  0  0
 30 33  2  0  0  0  0
 31 32  1  0  0  0  0
 32 34  1  0  0  0  0
 32 35  1  0  0  0  0
 34 35  1  0  0  0  0
 35 36  2  0  0  0  0
 39 40  1  0  0  0  0
 40 41  1  0  0  0  0
 40 48  1  0  0  0  0
 41 42  1  0  0  0  0
 42 43  2  0  0  0  0
 42 44  1  0  0  0  0
 43 45  1  0  0  0  0
 44 46  1  0  0  0  0
 44 47  2  0  0  0  0
 46 48  1  0  0  0  0
 46 49  2  0  0  0  0
 48 50  2  0  0  0  0
 51 52  1  0  0  0  0
 51 53  1  0  0  0  0
 52 53  2  0  0  0  0
M  CHG  1  18   1
M  END