
 OpenBabel11212019583D

 54 62  0  0  1  0  0  0  0  0999 V2000
   -9.8780   14.4750   67.0790 C   0  0  0  0  0  0  0  0  0  0  0  0
  -10.1600   15.5990   67.7880 C   0  0  0  0  0  0  0  0  0  0  0  0
  -10.8230   15.5280   69.0340 O   0  0  0  0  0  0  0  0  0  0  0  0
  -11.2930   14.3000   69.5280 C   0  0  0  0  0  0  0  0  0  0  0  0
  -10.9600   13.1520   68.9200 C   0  0  0  0  0  0  0  0  0  0  0  0
  -10.1560   13.1220   67.6700 C   0  0  0  0  0  0  0  0  0  0  0  0
  -11.4070   11.8060   69.4080 C   0  0  0  0  0  0  0  0  0  0  0  0
  -10.2540   11.0960   69.8130 O   0  0  0  0  0  0  0  0  0  0  0  0
  -10.4480    9.8370   70.2880 C   0  0  0  0  0  0  0  0  0  0  0  0
   -9.5360    9.0290   70.3420 O   0  0  0  0  0  0  0  0  0  0  0  0
  -11.7070    9.5480   70.6980 O   0  0  0  0  0  0  0  0  0  0  0  0
  -12.6760   10.5430   71.0160 C   0  0  0  0  0  0  0  0  0  0  0  0
  -12.2680   11.9120   70.5990 C   0  0  0  0  0  0  0  0  0  0  0  0
  -12.5970   13.0940   71.1680 C   0  0  0  0  0  0  0  0  0  0  0  0
  -12.1000   14.2910   70.6520 O   0  0  0  0  0  0  0  0  0  0  0  0
  -13.8510   10.2790   70.2710 O   0  0  0  0  0  0  0  0  0  0  0  0
   -9.7670   16.9920   67.3450 C   0  0  0  0  0  0  0  0  0  0  0  0
  -10.6650   17.7230   66.5580 C   0  0  0  0  0  0  0  0  0  0  0  0
  -10.3850   18.9570   66.1300 N   0  0  0  0  0  0  0  0  0  0  0  0
  -11.2910   19.6120   65.3780 F   0  0  0  0  0  0  0  0  0  0  0  0
   -9.2500   19.5610   66.3970 N   0  0  0  0  0  0  0  0  0  0  0  0
   -8.3280   18.9370   67.1260 C   0  0  0  0  0  0  0  0  0  0  0  0
   -8.5240   17.6290   67.6270 C   0  0  0  0  0  0  0  0  0  0  0  0
   -7.1430   19.6220   67.4060 C   0  0  0  0  0  0  0  0  0  0  0  0
   -7.4640   17.0730   68.3850 C   0  0  0  0  0  0  0  0  0  0  0  0
   -6.2850   17.7870   68.6480 C   0  0  0  0  0  0  0  0  0  0  0  0
   -5.2300   17.1790   69.4600 C   0  0  0  0  0  0  0  0  0  0  0  0
   -6.1260   19.0780   68.1870 C   0  0  0  0  0  0  0  0  0  0  0  0
   -5.3160   16.0100   69.8070 O   0  0  0  0  0  0  0  0  0  0  0  0
   -4.0530   18.0660   69.8040 C   0  0  0  0  0  0  0  0  0  0  0  0
   -2.9760   17.5690   70.0900 O   0  0  0  0  0  0  0  0  0  0  0  0
   -4.3510   19.5480   69.7170 C   0  0  0  0  0  0  0  0  0  0  0  0
   -5.0680   19.8810   68.5080 O   0  0  0  0  0  0  0  0  0  0  0  0
   -7.0000   20.8750   66.9440 F   0  0  0  0  0  0  0  0  0  0  0  0
   -5.0060   20.0780   70.9730 C   0  0  0  0  0  0  0  0  0  0  0  0
   -6.4270   20.2880   70.8980 O   0  0  0  0  0  0  0  0  0  0  0  0
   -4.5430   19.5060   72.2050 O   0  0  0  0  0  0  0  0  0  0  0  0
   -4.3210   20.8100   72.0240 C   0  0  0  0  0  0  0  0  0  0  0  0
   -3.2960   21.4760   72.0250 O   0  0  0  0  0  0  0  0  0  0  0  0
   -9.2610   14.5180   65.8300 O   0  0  0  0  0  0  0  0  0  0  0  0
   -9.7920   13.7260   64.7220 C   0  0  0  0  0  0  0  0  0  0  0  0
   -9.6560   12.3320   64.9460 O   0  0  0  0  0  0  0  0  0  0  0  0
  -10.4150   11.5750   64.0670 C   0  0  0  0  0  0  0  0  0  0  0  0
   -9.8150   10.6710   63.2860 C   0  0  0  0  0  0  0  0  0  0  0  0
  -11.8950   11.8260   64.0820 C   0  0  0  0  0  0  0  0  0  0  0  0
   -8.4550   10.5190   63.2780 O   0  0  0  0  0  0  0  0  0  0  0  0
  -12.0560   13.2380   63.5970 C   0  0  0  0  0  0  0  0  0  0  0  0
  -12.3800   11.6960   65.3530 F   0  0  0  0  0  0  0  0  0  0  0  0
  -11.1690   14.2520   64.2950 C   0  0  0  0  0  0  0  0  0  0  0  0
  -12.8690   13.6020   62.7600 O   0  0  0  0  0  0  0  0  0  0  0  0
  -11.5500   15.4020   64.4830 O   0  0  0  0  0  0  0  0  0  0  0  0
  -13.4800   13.1960   72.3530 C   0  0  0  0  0  0  0  0  0  0  0  0
  -13.4730   14.3680   73.1770 O   0  0  0  0  0  0  0  0  0  0  0  0
  -14.6180   14.0730   72.3510 O   0  0  0  0  0  0  0  0  0  0  0  0
  1 40  1  0  0  0  0
  1  2  2  0  0  0  0
  1  6  1  0  0  0  0
  2  3  1  0  0  0  0
  2 17  1  0  0  0  0
  3  4  1  0  0  0  0
  4  5  2  0  0  0  0
  4 15  1  0  0  0  0
  5  6  1  0  0  0  0
  5  7  1  0  0  0  0
  7  8  1  0  0  0  0
  7 13  1  0  0  0  0
  8  9  1  0  0  0  0
  9 10  2  0  0  0  0
  9 11  1  0  0  0  0
 11 12  1  0  0  0  0
 12 13  1  0  0  0  0
 12 16  1  0  0  0  0
 13 14  2  0  0  0  0
 14 15  1  0  0  0  0
 14 52  1  0  0  0  0
 17 18  2  0  0  0  0
 17 23  1  0  0  0  0
 18 19  1  0  0  0  0
 19 20  1  0  0  0  0
 19 21  2  0  0  0  0
 21 22  1  0  0  0  0
 22 23  2  0  0  0  0
 22 24  1  0  0  0  0
 23 25  1  0  0  0  0
 24 28  2  0  0  0  0
 24 34  1  0  0  0  0
 25 26  2  0  0  0  0
 26 27  1  0  0  0  0
 26 28  1  0  0  0  0
 27 29  2  0  0  0  0
 27 30  1  0  0  0  0
 28 33  1  0  0  0  0
 30 31  2  0  0  0  0
 30 32  1  0  0  0  0
 32 33  1  0  0  0  0
 32 35  1  0  0  0  0
 35 36  1  0  0  0  0
 35 37  1  0  0  0  0
 35 38  1  0  0  0  0
 37 38  1  0  0  0  0
 38 39  2  0  0  0  0
 40 41  1  0  0  0  0
 41 42  1  0  0  0  0
 41 49  1  0  0  0  0
 42 43  1  0  0  0  0
 43 44  2  0  0  0  0
 43 45  1  0  0  0  0
 44 46  1  0  0  0  0
 45 47  1  0  0  0  0
 45 48  1  0  0  0  0
 47 49  1  0  0  0  0
 47 50  2  0  0  0  0
 49 51  2  0  0  0  0
 52 53  1  0  0  0  0
 52 54  1  0  0  0  0
 53 54  1  0  0  0  0
M  CHG  2  15   1  19   1
M  END