
 OpenBabel09252009313D

 52 60  0  0  1  0  0  0  0  0999 V2000
   -9.6040   15.3930   67.7120 C   0  0  0  0  0  0  0  0  0  0  0  0
   -9.6470   16.5820   68.3690 C   0  0  0  0  0  0  0  0  0  0  0  0
  -10.1350   16.6650   69.6810 O   0  0  0  0  0  0  0  0  0  0  0  0
  -10.8270   15.5980   70.2310 C   0  0  0  0  0  0  0  0  0  0  0  0
  -10.7600   14.3790   69.6790 C   0  0  0  0  0  0  0  0  0  0  0  0
  -10.0140   14.1200   68.4260 C   0  0  0  0  0  0  0  0  0  0  0  0
  -11.5750   13.2850   70.2700 C   0  0  0  0  0  0  0  0  0  0  0  0
  -11.5200   12.0850   69.7920 N   0  0  0  0  0  0  0  0  0  0  0  0
  -12.3330   11.1090   70.3280 C   0  0  0  0  0  0  0  0  0  0  0  0
  -12.2680    9.9830   69.8530 O   0  0  0  0  0  0  0  0  0  0  0  0
  -13.2330   11.3430   71.3510 N   0  0  0  0  0  0  0  0  0  0  0  0
  -13.3030   12.5290   71.8500 C   0  0  0  0  0  0  0  0  0  0  0  0
  -12.4700   13.6400   71.3890 C   0  0  0  0  0  0  0  0  0  0  0  0
  -12.4790   14.8990   71.8710 C   0  0  0  0  0  0  0  0  0  0  0  0
  -11.6110   15.8450   71.3330 N   0  0  0  0  0  0  0  0  0  0  0  0
   -9.1460   17.8900   67.8250 C   0  0  0  0  0  0  0  0  0  0  0  0
  -10.0140   18.5130   66.9970 N   0  0  0  0  0  0  0  0  0  0  0  0
   -9.6500   19.6760   66.4650 C   0  0  0  0  0  0  0  0  0  0  0  0
  -10.5260   20.2930   65.6010 N   0  0  0  0  0  0  0  0  0  0  0  0
   -8.4770   20.2670   66.6640 N   0  0  0  0  0  0  0  0  0  0  0  0
   -7.6020   19.6590   67.4600 C   0  0  0  0  0  0  0  0  0  0  0  0
   -7.8600   18.4270   68.0840 C   0  0  0  0  0  0  0  0  0  0  0  0
   -6.3830   20.3010   67.6660 C   0  0  0  0  0  0  0  0  0  0  0  0
   -6.8210   17.8660   68.8780 C   0  0  0  0  0  0  0  0  0  0  0  0
   -5.5880   18.5060   69.0220 C   0  0  0  0  0  0  0  0  0  0  0  0
   -5.3800   19.7510   68.4610 C   0  0  0  0  0  0  0  0  0  0  0  0
   -4.4920   17.8460   69.7400 C   0  0  0  0  0  0  0  0  0  0  0  0
   -4.2450   20.4920   68.6260 O   0  0  0  0  0  0  0  0  0  0  0  0
   -3.4030   20.1320   69.7340 C   0  0  0  0  0  0  0  0  0  0  0  0
   -3.2210   18.6450   69.9090 C   0  0  0  0  0  0  0  0  0  0  0  0
   -2.1720   18.1010   70.2220 O   0  0  0  0  0  0  0  0  0  0  0  0
   -4.5920   16.7030   70.1590 O   0  0  0  0  0  0  0  0  0  0  0  0
   -3.8830   20.7700   71.0100 C   0  0  0  0  0  0  0  0  0  0  0  0
   -5.1870   21.3900   70.9890 O   0  0  0  0  0  0  0  0  0  0  0  0
   -3.6220   20.0380   72.2120 O   0  0  0  0  0  0  0  0  0  0  0  0
   -2.9410   21.1830   72.0380 C   0  0  0  0  0  0  0  0  0  0  0  0
   -1.7470   21.3910   72.0290 O   0  0  0  0  0  0  0  0  0  0  0  0
   -9.1610   15.2800   66.3960 O   0  0  0  0  0  0  0  0  0  0  0  0
   -9.9650   14.5000   65.5000 C   0  0  0  0  0  0  0  0  0  0  0  0
  -10.6010   13.4190   66.1900 O   0  0  0  0  0  0  0  0  0  0  0  0
  -11.2500   12.5580   65.3250 C   0  0  0  0  0  0  0  0  0  0  0  0
  -11.0870   11.2300   65.3900 C   0  0  0  0  0  0  0  0  0  0  0  0
  -12.1610   13.1200   64.2950 C   0  0  0  0  0  0  0  0  0  0  0  0
  -10.2440   10.6220   66.2850 O   0  0  0  0  0  0  0  0  0  0  0  0
  -12.2050   14.6330   64.3200 C   0  0  0  0  0  0  0  0  0  0  0  0
  -12.7750   12.4620   63.4720 O   0  0  0  0  0  0  0  0  0  0  0  0
  -10.9760   15.3870   64.7790 C   0  0  0  0  0  0  0  0  0  0  0  0
  -13.2160   15.2250   63.9780 O   0  0  0  0  0  0  0  0  0  0  0  0
  -10.8050   16.5540   64.4560 O   0  0  0  0  0  0  0  0  0  0  0  0
  -13.3800   15.3730   72.9440 C   0  0  0  0  0  0  0  0  0  0  0  0
  -13.0430   15.2420   74.3350 O   0  0  0  0  0  0  0  0  0  0  0  0
  -13.0680   16.5430   73.7180 O   0  0  0  0  0  0  0  0  0  0  0  0
  1 38  1  0  0  0  0
  1  2  2  0  0  0  0
  1  6  1  0  0  0  0
  2  3  1  0  0  0  0
  2 16  1  0  0  0  0
  3  4  1  0  0  0  0
  4  5  2  0  0  0  0
  4 15  1  0  0  0  0
  5  6  1  0  0  0  0
  5  7  1  0  0  0  0
  7  8  2  0  0  0  0
  7 13  1  0  0  0  0
  8  9  1  0  0  0  0
  9 10  2  0  0  0  0
  9 11  1  0  0  0  0
 11 12  2  0  0  0  0
 12 13  1  0  0  0  0
 13 14  2  0  0  0  0
 14 15  1  0  0  0  0
 14 50  1  0  0  0  0
 16 17  2  0  0  0  0
 16 22  1  0  0  0  0
 17 18  1  0  0  0  0
 18 19  1  0  0  0  0
 18 20  2  0  0  0  0
 20 21  1  0  0  0  0
 21 22  2  0  0  0  0
 21 23  1  0  0  0  0
 22 24  1  0  0  0  0
 23 26  2  0  0  0  0
 24 25  2  0  0  0  0
 25 26  1  0  0  0  0
 25 27  1  0  0  0  0
 26 28  1  0  0  0  0
 27 30  1  0  0  0  0
 27 32  2  0  0  0  0
 28 29  1  0  0  0  0
 29 30  1  0  0  0  0
 29 33  1  0  0  0  0
 30 31  2  0  0  0  0
 33 34  1  0  0  0  0
 33 35  1  0  0  0  0
 33 36  1  0  0  0  0
 35 36  1  0  0  0  0
 36 37  2  0  0  0  0
 38 39  1  0  0  0  0
 39 40  1  0  0  0  0
 39 47  1  0  0  0  0
 40 41  1  0  0  0  0
 41 42  2  0  0  0  0
 41 43  1  0  0  0  0
 42 44  1  0  0  0  0
 43 45  1  0  0  0  0
 43 46  2  0  0  0  0
 45 47  1  0  0  0  0
 45 48  2  0  0  0  0
 47 49  2  0  0  0  0
 50 51  1  0  0  0  0
 50 52  1  0  0  0  0
 51 52  1  0  0  0  0
M  END
