
 OpenBabel11222023153D

 54 63  0  0  1  0  0  0  0  0999 V2000
  -10.2320   14.9920   67.5600 C   0  0  0  0  0  0  0  0  0  0  0  0
  -10.2040   14.8770   68.9120 C   0  0  0  0  0  0  0  0  0  0  0  0
   -9.0520   15.2080   69.6440 O   0  0  0  0  0  0  0  0  0  0  0  0
   -7.9230   15.7090   69.0170 C   0  0  0  0  0  0  0  0  0  0  0  0
   -7.8880   15.9200   67.6920 C   0  0  0  0  0  0  0  0  0  0  0  0
   -9.0310   15.5290   66.8080 C   0  0  0  0  0  0  0  0  0  0  0  0
   -6.7010   16.5530   67.0220 C   0  0  0  0  0  0  0  0  0  0  0  0
   -7.1460   17.7220   66.3520 O   0  0  0  0  0  0  0  0  0  0  0  0
   -6.1970   18.3280   65.5890 C   0  0  0  0  0  0  0  0  0  0  0  0
   -6.4800   19.0240   64.6290 O   0  0  0  0  0  0  0  0  0  0  0  0
   -4.9210   18.0530   65.9640 O   0  0  0  0  0  0  0  0  0  0  0  0
   -4.6720   17.8870   67.3540 C   0  0  0  0  0  0  0  0  0  0  0  0
   -5.6990   17.0280   68.0110 C   0  0  0  0  0  0  0  0  0  0  0  0
   -5.7830   16.7410   69.3310 C   0  0  0  0  0  0  0  0  0  0  0  0
   -6.8450   15.9950   69.8150 O   0  0  0  0  0  0  0  0  0  0  0  0
   -3.4420   17.2170   67.5210 O   0  0  0  0  0  0  0  0  0  0  0  0
  -11.2770   14.3150   69.8010 C   0  0  0  0  0  0  0  0  0  0  0  0
  -12.0800   15.2490   70.4700 C   0  0  0  0  0  0  0  0  0  0  0  0
  -13.0820   14.8090   71.3070 C   0  0  0  0  0  0  0  0  0  0  0  0
  -13.8980   15.7190   71.8550 F   0  0  0  0  0  0  0  0  0  0  0  0
  -13.3080   13.5210   71.5830 N   0  0  0  0  0  0  0  0  0  0  0  0
  -12.5610   12.5930   70.9690 C   0  0  0  0  0  0  0  0  0  0  0  0
  -11.5780   12.9340   70.0010 C   0  0  0  0  0  0  0  0  0  0  0  0
  -12.7760   11.2480   71.2750 C   0  0  0  0  0  0  0  0  0  0  0  0
  -10.9820   11.8730   69.2860 C   0  0  0  0  0  0  0  0  0  0  0  0
  -11.1930   10.5350   69.6420 C   0  0  0  0  0  0  0  0  0  0  0  0
  -12.0700   10.2180   70.6600 C   0  0  0  0  0  0  0  0  0  0  0  0
  -10.4650    9.4660   68.9420 C   0  0  0  0  0  0  0  0  0  0  0  0
  -12.3280    8.9350   71.0600 O   0  0  0  0  0  0  0  0  0  0  0  0
  -11.2870    7.9800   70.7520 C   0  0  0  0  0  0  0  0  0  0  0  0
  -10.7270    8.0440   69.3930 C   0  0  0  0  0  0  0  0  0  0  0  0
  -10.3740    7.6790   71.7750 O   0  0  0  0  0  0  0  0  0  0  0  0
  -11.3400    6.6340   71.4130 C   0  0  0  0  0  0  0  0  0  0  0  0
  -10.5260    7.0740   68.6840 O   0  0  0  0  0  0  0  0  0  0  0  0
  -12.6150    6.5800   72.1740 O   0  0  0  0  0  0  0  0  0  0  0  0
  -11.5900    5.8880   72.6170 C   0  0  0  0  0  0  0  0  0  0  0  0
  -11.4580    4.7320   72.9320 O   0  0  0  0  0  0  0  0  0  0  0  0
   -9.6850    9.7290   68.0360 O   0  0  0  0  0  0  0  0  0  0  0  0
  -13.6950   10.9220   72.2020 F   0  0  0  0  0  0  0  0  0  0  0  0
  -11.3050   14.5370   66.7980 O   0  0  0  0  0  0  0  0  0  0  0  0
  -11.0050   13.6710   65.6790 C   0  0  0  0  0  0  0  0  0  0  0  0
  -10.4110   12.4530   66.1260 O   0  0  0  0  0  0  0  0  0  0  0  0
   -9.9290   11.6870   65.0800 C   0  0  0  0  0  0  0  0  0  0  0  0
   -8.7000   11.1580   65.1220 C   0  0  0  0  0  0  0  0  0  0  0  0
  -10.7960   11.4330   63.8960 C   0  0  0  0  0  0  0  0  0  0  0  0
   -7.8280   11.3750   66.1610 O   0  0  0  0  0  0  0  0  0  0  0  0
  -12.1160   12.1860   63.9440 C   0  0  0  0  0  0  0  0  0  0  0  0
  -10.4810   10.7210   62.9600 O   0  0  0  0  0  0  0  0  0  0  0  0
  -12.2770   13.3520   64.9010 C   0  0  0  0  0  0  0  0  0  0  0  0
  -13.0450   11.8480   63.2290 O   0  0  0  0  0  0  0  0  0  0  0  0
  -13.3310   13.9730   64.9780 O   0  0  0  0  0  0  0  0  0  0  0  0
   -4.8000   17.1890   70.3460 C   0  0  0  0  0  0  0  0  0  0  0  0
   -5.1350   18.2590   71.2520 O   0  0  0  0  0  0  0  0  0  0  0  0
   -4.9810   16.9130   71.7400 O   0  0  0  0  0  0  0  0  0  0  0  0
  1 40  1  0  0  0  0
  1  2  2  0  0  0  0
  1  6  1  0  0  0  0
  2  3  1  0  0  0  0
  2 17  1  0  0  0  0
  3  4  1  0  0  0  0
  4  5  2  0  0  0  0
  4 15  1  0  0  0  0
  5  6  1  0  0  0  0
  5  7  1  0  0  0  0
  7  8  1  0  0  0  0
  7 13  1  0  0  0  0
  8  9  1  0  0  0  0
  9 10  2  0  0  0  0
  9 11  1  0  0  0  0
 11 12  1  0  0  0  0
 12 13  1  0  0  0  0
 12 16  1  0  0  0  0
 13 14  2  0  0  0  0
 14 15  1  0  0  0  0
 14 52  1  0  0  0  0
 17 18  2  0  0  0  0
 17 23  1  0  0  0  0
 18 19  1  0  0  0  0
 19 20  1  0  0  0  0
 19 21  2  0  0  0  0
 21 22  1  0  0  0  0
 22 23  2  0  0  0  0
 22 24  1  0  0  0  0
 23 25  1  0  0  0  0
 24 27  2  0  0  0  0
 24 39  1  0  0  0  0
 25 26  2  0  0  0  0
 26 27  1  0  0  0  0
 26 28  1  0  0  0  0
 27 29  1  0  0  0  0
 28 31  1  0  0  0  0
 28 38  2  0  0  0  0
 29 30  1  0  0  0  0
 30 31  1  0  0  0  0
 30 32  1  0  0  0  0
 30 33  1  0  0  0  0
 31 34  2  0  0  0  0
 32 33  1  0  0  0  0
 33 35  1  0  0  0  0
 33 36  1  0  0  0  0
 35 36  1  0  0  0  0
 36 37  2  0  0  0  0
 40 41  1  0  0  0  0
 41 42  1  0  0  0  0
 41 49  1  0  0  0  0
 42 43  1  0  0  0  0
 43 44  2  0  0  0  0
 43 45  1  0  0  0  0
 44 46  1  0  0  0  0
 45 47  1  0  0  0  0
 45 48  2  0  0  0  0
 47 49  1  0  0  0  0
 47 50  2  0  0  0  0
 49 51  2  0  0  0  0
 52 53  1  0  0  0  0
 52 54  1  0  0  0  0
 53 54  1  0  0  0  0
M  CHG  1  15   1
M  END