
 OpenBabel11242000563D

 53 62  0  0  1  0  0  0  0  0999 V2000
  -11.1500   15.5930   67.1380 C   0  0  0  0  0  0  0  0  0  0  0  0
  -10.7930   16.6960   67.8290 C   0  0  0  0  0  0  0  0  0  0  0  0
  -11.0320   16.8680   69.1860 O   0  0  0  0  0  0  0  0  0  0  0  0
  -11.6510   15.8420   69.8920 C   0  0  0  0  0  0  0  0  0  0  0  0
  -12.0330   14.6990   69.3000 C   0  0  0  0  0  0  0  0  0  0  0  0
  -11.8570   14.4610   67.8400 C   0  0  0  0  0  0  0  0  0  0  0  0
  -12.7270   13.6170   70.0840 C   0  0  0  0  0  0  0  0  0  0  0  0
  -11.9450   12.3980   69.9500 N   0  0  0  0  0  0  0  0  0  0  0  0
  -12.4130   11.3050   70.5970 C   0  0  0  0  0  0  0  0  0  0  0  0
  -12.3830   10.1310   70.0860 N   0  0  0  0  0  0  0  0  0  0  0  0
  -12.8570   11.5240   71.8510 N   0  0  0  0  0  0  0  0  0  0  0  0
  -13.4810   12.7500   72.2860 C   0  0  0  0  0  0  0  0  0  0  0  0
  -12.8630   13.9020   71.5530 C   0  0  0  0  0  0  0  0  0  0  0  0
  -12.4320   15.0710   72.0820 C   0  0  0  0  0  0  0  0  0  0  0  0
  -11.8750   16.0280   71.2330 N   0  0  0  0  0  0  0  0  0  0  0  0
  -10.0450   17.7850   67.1850 C   0  0  0  0  0  0  0  0  0  0  0  0
  -10.7420   18.6210   66.3250 C   0  0  0  0  0  0  0  0  0  0  0  0
  -10.1550   19.6990   65.8060 N   0  0  0  0  0  0  0  0  0  0  0  0
  -10.8600   20.4920   64.9760 F   0  0  0  0  0  0  0  0  0  0  0  0
   -8.9130   20.0470   66.0990 N   0  0  0  0  0  0  0  0  0  0  0  0
   -8.1820   19.2850   66.9240 C   0  0  0  0  0  0  0  0  0  0  0  0
   -8.7050   18.0990   67.4800 C   0  0  0  0  0  0  0  0  0  0  0  0
   -6.8730   19.6910   67.2650 C   0  0  0  0  0  0  0  0  0  0  0  0
   -7.8800   17.2960   68.3000 C   0  0  0  0  0  0  0  0  0  0  0  0
   -6.5720   17.6870   68.5910 C   0  0  0  0  0  0  0  0  0  0  0  0
   -5.7050   16.8530   69.4310 C   0  0  0  0  0  0  0  0  0  0  0  0
   -6.0730   18.8750   68.0860 C   0  0  0  0  0  0  0  0  0  0  0  0
   -5.9450   15.6680   69.5910 O   0  0  0  0  0  0  0  0  0  0  0  0
   -4.5570   17.5410   70.1430 C   0  0  0  0  0  0  0  0  0  0  0  0
   -4.0060   17.0450   71.1100 O   0  0  0  0  0  0  0  0  0  0  0  0
   -4.3510   18.9350   69.6990 C   0  0  0  0  0  0  0  0  0  0  0  0
   -4.7830   19.2710   68.3560 O   0  0  0  0  0  0  0  0  0  0  0  0
   -3.1760   19.5640   70.1470 O   0  0  0  0  0  0  0  0  0  0  0  0
   -4.4300   19.9780   70.7720 C   0  0  0  0  0  0  0  0  0  0  0  0
   -5.1270   21.1440   70.1890 O   0  0  0  0  0  0  0  0  0  0  0  0
   -4.2640   21.3480   71.1550 C   0  0  0  0  0  0  0  0  0  0  0  0
   -4.3820   21.9340   72.2190 O   0  0  0  0  0  0  0  0  0  0  0  0
   -6.2830   20.8100   66.6350 N   0  0  0  0  0  0  0  0  0  0  0  0
  -10.7770   15.4510   65.8060 O   0  0  0  0  0  0  0  0  0  0  0  0
  -10.2550   14.1860   65.3980 C   0  0  0  0  0  0  0  0  0  0  0  0
   -9.9950   13.3800   66.5480 O   0  0  0  0  0  0  0  0  0  0  0  0
   -9.2620   12.2410   66.2240 C   0  0  0  0  0  0  0  0  0  0  0  0
   -8.1830   11.9340   66.9560 C   0  0  0  0  0  0  0  0  0  0  0  0
   -9.6910   11.3950   65.0550 C   0  0  0  0  0  0  0  0  0  0  0  0
   -7.7510   12.7200   67.9990 O   0  0  0  0  0  0  0  0  0  0  0  0
  -10.6060   12.1240   64.0790 C   0  0  0  0  0  0  0  0  0  0  0  0
   -9.2940    9.8130   64.7010 S   0  0  0  0  0  0  0  0  0  0  0  0
  -11.2290   13.4180   64.5320 C   0  0  0  0  0  0  0  0  0  0  0  0
  -10.7110   11.8090   62.9060 O   0  0  0  0  0  0  0  0  0  0  0  0
  -12.3560   13.7580   64.2150 O   0  0  0  0  0  0  0  0  0  0  0  0
  -12.5070   15.4110   73.5140 C   0  0  0  0  0  0  0  0  0  0  0  0
  -13.4160   16.4220   73.9360 N   0  0  0  0  0  0  0  0  0  0  0  0
  -12.2140   16.7420   73.9090 N   0  0  0  0  0  0  0  0  0  0  0  0
  1 39  1  0  0  0  0
  1  2  2  0  0  0  0
  1  6  1  0  0  0  0
  2  3  1  0  0  0  0
  2 16  1  0  0  0  0
  3  4  1  0  0  0  0
  4  5  2  0  0  0  0
  4 15  1  0  0  0  0
  5  6  1  0  0  0  0
  5  7  1  0  0  0  0
  7  8  1  0  0  0  0
  7 13  1  0  0  0  0
  8  9  1  0  0  0  0
  9 10  2  0  0  0  0
  9 11  1  0  0  0  0
 11 12  1  0  0  0  0
 12 13  1  0  0  0  0
 13 14  2  0  0  0  0
 14 15  1  0  0  0  0
 14 51  1  0  0  0  0
 16 17  2  0  0  0  0
 16 22  1  0  0  0  0
 17 18  1  0  0  0  0
 18 19  1  0  0  0  0
 18 20  2  0  0  0  0
 20 21  1  0  0  0  0
 21 22  2  0  0  0  0
 21 23  1  0  0  0  0
 22 24  1  0  0  0  0
 23 27  2  0  0  0  0
 23 38  1  0  0  0  0
 24 25  2  0  0  0  0
 25 26  1  0  0  0  0
 25 27  1  0  0  0  0
 26 28  2  0  0  0  0
 26 29  1  0  0  0  0
 27 32  1  0  0  0  0
 29 30  2  0  0  0  0
 29 31  1  0  0  0  0
 31 32  1  0  0  0  0
 31 33  1  0  0  0  0
 31 34  1  0  0  0  0
 33 34  1  0  0  0  0
 34 35  1  0  0  0  0
 34 36  1  0  0  0  0
 35 36  1  0  0  0  0
 36 37  2  0  0  0  0
 39 40  1  0  0  0  0
 40 41  1  0  0  0  0
 40 48  1  0  0  0  0
 41 42  1  0  0  0  0
 42 43  2  0  0  0  0
 42 44  1  0  0  0  0
 43 45  1  0  0  0  0
 44 46  1  0  0  0  0
 44 47  2  0  0  0  0
 46 48  1  0  0  0  0
 46 49  2  0  0  0  0
 48 50  2  0  0  0  0
 51 52  1  0  0  0  0
 51 53  1  0  0  0  0
 52 53  2  0  0  0  0
M  CHG  1  18   1
M  END