
 OpenBabel11212022303D

 54 62  0  0  1  0  0  0  0  0999 V2000
  -11.2300   15.6870   67.4340 C   0  0  0  0  0  0  0  0  0  0  0  0
  -10.6890   16.7520   68.0810 C   0  0  0  0  0  0  0  0  0  0  0  0
  -10.7460   16.8390   69.4810 O   0  0  0  0  0  0  0  0  0  0  0  0
  -11.5560   15.9650   70.2100 C   0  0  0  0  0  0  0  0  0  0  0  0
  -11.9680   14.8110   69.6600 C   0  0  0  0  0  0  0  0  0  0  0  0
  -11.6770   14.4780   68.2270 C   0  0  0  0  0  0  0  0  0  0  0  0
  -12.7620   13.7960   70.4340 C   0  0  0  0  0  0  0  0  0  0  0  0
  -11.9390   12.6570   70.5940 O   0  0  0  0  0  0  0  0  0  0  0  0
  -12.4280   11.6320   71.3380 C   0  0  0  0  0  0  0  0  0  0  0  0
  -11.9190   10.5140   71.2900 O   0  0  0  0  0  0  0  0  0  0  0  0
  -13.4940   11.9080   72.1200 O   0  0  0  0  0  0  0  0  0  0  0  0
  -13.8600   13.2290   72.5130 C   0  0  0  0  0  0  0  0  0  0  0  0
  -13.0860   14.2750   71.7960 C   0  0  0  0  0  0  0  0  0  0  0  0
  -12.6990   15.4780   72.2730 C   0  0  0  0  0  0  0  0  0  0  0  0
  -11.9020   16.3140   71.5020 O   0  0  0  0  0  0  0  0  0  0  0  0
  -15.2070   13.4580   72.1500 O   0  0  0  0  0  0  0  0  0  0  0  0
   -9.9820   17.9060   67.4040 C   0  0  0  0  0  0  0  0  0  0  0  0
  -10.6520   18.6000   66.3900 C   0  0  0  0  0  0  0  0  0  0  0  0
  -10.1060   19.6630   65.7910 N   0  0  0  0  0  0  0  0  0  0  0  0
  -10.8190   20.3270   64.8600 F   0  0  0  0  0  0  0  0  0  0  0  0
   -8.9000   20.1030   66.0870 N   0  0  0  0  0  0  0  0  0  0  0  0
   -8.1610   19.4630   66.9930 C   0  0  0  0  0  0  0  0  0  0  0  0
   -8.6470   18.3270   67.6780 C   0  0  0  0  0  0  0  0  0  0  0  0
   -6.8730   19.9440   67.2770 C   0  0  0  0  0  0  0  0  0  0  0  0
   -7.7450   17.7000   68.5730 C   0  0  0  0  0  0  0  0  0  0  0  0
   -6.4390   18.1640   68.7780 C   0  0  0  0  0  0  0  0  0  0  0  0
   -5.5140   17.3790   69.5990 C   0  0  0  0  0  0  0  0  0  0  0  0
   -6.0050   19.3260   68.1800 C   0  0  0  0  0  0  0  0  0  0  0  0
   -5.8790   16.3260   70.1010 O   0  0  0  0  0  0  0  0  0  0  0  0
   -4.1060   17.9260   69.6970 C   0  0  0  0  0  0  0  0  0  0  0  0
   -3.1630   17.1610   69.8150 O   0  0  0  0  0  0  0  0  0  0  0  0
   -4.0300   19.4330   69.5500 C   0  0  0  0  0  0  0  0  0  0  0  0
   -4.7870   19.9010   68.4110 O   0  0  0  0  0  0  0  0  0  0  0  0
   -6.4570   21.0560   66.6500 F   0  0  0  0  0  0  0  0  0  0  0  0
   -4.4670   20.1470   70.8100 C   0  0  0  0  0  0  0  0  0  0  0  0
   -5.8120   20.6920   70.7880 O   0  0  0  0  0  0  0  0  0  0  0  0
   -4.1580   19.4620   72.0100 O   0  0  0  0  0  0  0  0  0  0  0  0
   -3.5850   20.6760   71.8530 C   0  0  0  0  0  0  0  0  0  0  0  0
   -1.9730   20.8450   71.9860 S   0  0  0  0  0  0  0  0  0  0  0  0
  -11.3020   15.6350   66.0520 O   0  0  0  0  0  0  0  0  0  0  0  0
  -10.8850   14.4410   65.3290 C   0  0  0  0  0  0  0  0  0  0  0  0
  -10.1060   13.5780   66.1470 O   0  0  0  0  0  0  0  0  0  0  0  0
   -9.8370   12.3160   65.6310 C   0  0  0  0  0  0  0  0  0  0  0  0
   -8.7590   11.6250   66.0260 C   0  0  0  0  0  0  0  0  0  0  0  0
  -10.7450   11.6230   64.6640 C   0  0  0  0  0  0  0  0  0  0  0  0
   -7.8340   12.1080   66.9170 O   0  0  0  0  0  0  0  0  0  0  0  0
  -11.9280   12.4480   64.2180 C   0  0  0  0  0  0  0  0  0  0  0  0
  -10.5650   10.4890   64.2530 O   0  0  0  0  0  0  0  0  0  0  0  0
  -12.1740   13.7720   64.8880 C   0  0  0  0  0  0  0  0  0  0  0  0
  -12.6440   12.0930   63.2980 O   0  0  0  0  0  0  0  0  0  0  0  0
  -13.2990   14.2250   65.0560 O   0  0  0  0  0  0  0  0  0  0  0  0
  -13.0620   15.9770   73.6210 C   0  0  0  0  0  0  0  0  0  0  0  0
  -12.3120   15.5880   74.7760 O   0  0  0  0  0  0  0  0  0  0  0  0
  -12.2350   16.9420   74.2890 O   0  0  0  0  0  0  0  0  0  0  0  0
  1 40  1  0  0  0  0
  1  2  2  0  0  0  0
  1  6  1  0  0  0  0
  2  3  1  0  0  0  0
  2 17  1  0  0  0  0
  3  4  1  0  0  0  0
  4  5  2  0  0  0  0
  4 15  1  0  0  0  0
  5  6  1  0  0  0  0
  5  7  1  0  0  0  0
  7  8  1  0  0  0  0
  7 13  1  0  0  0  0
  8  9  1  0  0  0  0
  9 10  2  0  0  0  0
  9 11  1  0  0  0  0
 11 12  1  0  0  0  0
 12 13  1  0  0  0  0
 12 16  1  0  0  0  0
 13 14  2  0  0  0  0
 14 15  1  0  0  0  0
 14 52  1  0  0  0  0
 17 18  2  0  0  0  0
 17 23  1  0  0  0  0
 18 19  1  0  0  0  0
 19 20  1  0  0  0  0
 19 21  2  0  0  0  0
 21 22  1  0  0  0  0
 22 23  2  0  0  0  0
 22 24  1  0  0  0  0
 23 25  1  0  0  0  0
 24 28  2  0  0  0  0
 24 34  1  0  0  0  0
 25 26  2  0  0  0  0
 26 27  1  0  0  0  0
 26 28  1  0  0  0  0
 27 29  2  0  0  0  0
 27 30  1  0  0  0  0
 28 33  1  0  0  0  0
 30 31  2  0  0  0  0
 30 32  1  0  0  0  0
 32 33  1  0  0  0  0
 32 35  1  0  0  0  0
 35 36  1  0  0  0  0
 35 37  1  0  0  0  0
 35 38  1  0  0  0  0
 37 38  1  0  0  0  0
 38 39  2  0  0  0  0
 40 41  1  0  0  0  0
 41 42  1  0  0  0  0
 41 49  1  0  0  0  0
 42 43  1  0  0  0  0
 43 44  2  0  0  0  0
 43 45  1  0  0  0  0
 44 46  1  0  0  0  0
 45 47  1  0  0  0  0
 45 48  2  0  0  0  0
 47 49  1  0  0  0  0
 47 50  2  0  0  0  0
 49 51  2  0  0  0  0
 52 53  1  0  0  0  0
 52 54  1  0  0  0  0
 53 54  1  0  0  0  0
M  CHG  2  15   1  19   1
M  END