
 OpenBabel11242003153D

 93108  0  0  1  0  0  0  0  0999 V2000
  -10.7450   10.5870   66.8850 C   0  0  0  0  0  0  0  0  0  0  0  0
  -11.1410   11.9640   67.2330 O   0  0  0  0  0  0  0  0  0  0  0  0
  -10.1810   12.9590   67.2350 C   0  0  0  0  0  0  0  0  0  0  0  0
   -8.8370   12.6380   67.3700 C   0  0  0  0  0  0  0  0  0  0  0  0
   -8.3940   11.2060   67.3020 C   0  0  0  0  0  0  0  0  0  0  0  0
   -9.3100   10.4980   66.2830 C   0  0  0  0  0  0  0  0  0  0  0  0
   -7.0040   11.1230   66.9640 O   0  0  0  0  0  0  0  0  0  0  0  0
   -7.8830   13.6870   67.4500 C   0  0  0  0  0  0  0  0  0  0  0  0
   -8.1810   15.0260   67.1970 C   0  0  0  0  0  0  0  0  0  0  0  0
   -9.5640   15.3490   67.0010 C   0  0  0  0  0  0  0  0  0  0  0  0
  -10.5260   14.2960   67.0830 C   0  0  0  0  0  0  0  0  0  0  0  0
  -11.8200   14.6430   66.9230 F   0  0  0  0  0  0  0  0  0  0  0  0
   -9.8500   16.6820   66.7010 C   0  0  0  0  0  0  0  0  0  0  0  0
  -11.1240   17.1420   66.5450 O   0  0  0  0  0  0  0  0  0  0  0  0
   -8.8500   17.6590   66.5410 C   0  0  0  0  0  0  0  0  0  0  0  0
   -7.4770   17.3910   66.7610 C   0  0  0  0  0  0  0  0  0  0  0  0
   -7.1940   16.0640   67.0990 C   0  0  0  0  0  0  0  0  0  0  0  0
   -5.8410   15.7880   67.3020 O   0  0  0  0  0  0  0  0  0  0  0  0
  -10.9810    9.6000   68.1140 C   0  0  0  0  0  0  0  0  0  0  0  0
   -9.8850    8.4940   68.2080 C   0  0  0  0  0  0  0  0  0  0  0  0
  -10.0500    7.3850   67.1330 C   0  0  0  0  0  0  0  0  0  0  0  0
   -9.6480    7.8710   69.5900 C   0  0  0  0  0  0  0  0  0  0  0  0
  -11.3680    7.1370   66.8810 F   0  0  0  0  0  0  0  0  0  0  0  0
   -9.3740    6.0560   67.4880 C   0  0  0  0  0  0  0  0  0  0  0  0
   -8.1430    6.3350   68.3600 C   0  0  0  0  0  0  0  0  0  0  0  0
   -7.1830    5.1550   68.4090 C   0  0  0  0  0  0  0  0  0  0  0  0
   -8.7270    6.8010   69.6940 C   0  0  0  0  0  0  0  0  0  0  0  0
   -7.5360    4.2230   69.5420 C   0  0  0  0  0  0  0  0  0  0  0  0
   -7.4670    4.9860   70.8690 C   0  0  0  0  0  0  0  0  0  0  0  0
   -8.4610    6.1340   70.9390 C   0  0  0  0  0  0  0  0  0  0  0  0
   -6.1490    5.4840   71.0730 O   0  0  0  0  0  0  0  0  0  0  0  0
   -9.0890    6.5910   72.1440 C   0  0  0  0  0  0  0  0  0  0  0  0
   -9.9780    7.6970   71.9840 C   0  0  0  0  0  0  0  0  0  0  0  0
  -10.2620    8.3290   70.7460 C   0  0  0  0  0  0  0  0  0  0  0  0
  -11.2780    9.4310   70.6640 C   0  0  0  0  0  0  0  0  0  0  0  0
  -11.0340   10.3580   69.4670 C   0  0  0  0  0  0  0  0  0  0  0  0
   -8.8810    6.0300   73.5500 C   0  0  0  0  0  0  0  0  0  0  0  0
   -8.8300    4.6240   73.7780 C   0  0  0  0  0  0  0  0  0  0  0  0
   -8.6870    4.0380   75.0710 C   0  0  0  0  0  0  0  0  0  0  0  0
   -8.8760    2.5320   75.2450 C   0  0  0  0  0  0  0  0  0  0  0  0
   -8.5270    4.8630   76.1870 C   0  0  0  0  0  0  0  0  0  0  0  0
  -10.3760    2.2450   75.0360 C   0  0  0  0  0  0  0  0  0  0  0  0
   -8.3640    1.9850   76.6090 C   0  0  0  0  0  0  0  0  0  0  0  0
  -10.7500    0.7930   75.2780 C   0  0  0  0  0  0  0  0  0  0  0  0
  -10.3250    0.3220   76.6710 C   0  0  0  0  0  0  0  0  0  0  0  0
   -8.7980    0.5080   76.8360 C   0  0  0  0  0  0  0  0  0  0  0  0
  -10.7810   -1.1250   76.8780 C   0  0  0  0  0  0  0  0  0  0  0  0
   -8.2830   -0.0360   78.1740 C   0  0  0  0  0  0  0  0  0  0  0  0
   -8.7710    2.9200   77.7630 C   0  0  0  0  0  0  0  0  0  0  0  0
   -8.2220    4.3340   77.5700 C   0  0  0  0  0  0  0  0  0  0  0  0
   -6.7090    4.4120   77.8290 C   0  0  0  0  0  0  0  0  0  0  0  0
   -8.5670    6.2410   75.9950 C   0  0  0  0  0  0  0  0  0  0  0  0
   -8.6930    6.7920   74.7150 C   0  0  0  0  0  0  0  0  0  0  0  0
   -8.4840    8.1190   74.6670 F   0  0  0  0  0  0  0  0  0  0  0  0
   -9.3250   11.1710   64.9880 O   0  0  0  0  0  0  0  0  0  0  0  0
   -9.0340   10.4710   63.8460 C   0  0  0  0  0  0  0  0  0  0  0  0
   -8.4100    9.2290   64.0430 C   0  0  0  0  0  0  0  0  0  0  0  0
   -8.1260    8.3850   62.9610 C   0  0  0  0  0  0  0  0  0  0  0  0
   -8.4600    8.7770   61.6690 C   0  0  0  0  0  0  0  0  0  0  0  0
   -9.0250   10.0310   61.4580 C   0  0  0  0  0  0  0  0  0  0  0  0
   -9.2970   10.8790   62.5390 C   0  0  0  0  0  0  0  0  0  0  0  0
   -6.4840   18.5160   66.6930 C   0  0  0  0  0  0  0  0  0  0  0  0
   -5.9610   18.8900   65.4360 C   0  0  0  0  0  0  0  0  0  0  0  0
   -5.0970   20.0000   65.1650 C   0  0  0  0  0  0  0  0  0  0  0  0
   -4.4840   20.4870   63.8680 C   0  0  0  0  0  0  0  0  0  0  0  0
   -4.7590   20.7030   66.3440 N   0  0  0  0  0  0  0  0  0  0  0  0
   -3.6210   21.5830   63.9420 C   0  0  0  0  0  0  0  0  0  0  0  0
   -3.0380   22.1080   62.8250 O   0  0  0  0  0  0  0  0  0  0  0  0
   -3.3660   22.1550   65.1790 C   0  0  0  0  0  0  0  0  0  0  0  0
   -3.9200   21.7330   66.3220 N   0  0  0  0  0  0  0  0  0  0  0  0
   -5.2220   20.3480   67.5760 N   0  0  0  0  0  0  0  0  0  0  0  0
   -6.0540   19.3020   67.7930 C   0  0  0  0  0  0  0  0  0  0  0  0
   -4.8620   21.0440   68.7480 O   0  0  0  0  0  0  0  0  0  0  0  0
   -6.3280   18.9860   69.0840 O   0  0  0  0  0  0  0  0  0  0  0  0
   -4.7430   19.8660   62.3800 N   0  0  0  0  0  0  0  0  0  0  0  0
   -5.5840   20.4530   61.3860 N   0  0  0  0  0  0  0  0  0  0  0  0
   -6.1280   21.7410   61.4130 O   0  0  0  0  0  0  0  0  0  0  0  0
   -5.7870   19.8820   60.1410 C   0  0  0  0  0  0  0  0  0  0  0  0
   -5.1880   18.6820   59.6940 C   0  0  0  0  0  0  0  0  0  0  0  0
   -4.3790   18.0490   60.6410 C   0  0  0  0  0  0  0  0  0  0  0  0
   -5.3370   18.0910   58.4020 N   0  0  0  0  0  0  0  0  0  0  0  0
   -4.1910   18.6470   61.9760 C   0  0  0  0  0  0  0  0  0  0  0  0
   -3.8060   16.8800   60.2720 N   0  0  0  0  0  0  0  0  0  0  0  0
   -3.4950   17.8970   62.8930 O   0  0  0  0  0  0  0  0  0  0  0  0
   -3.9710   16.3090   59.0570 N   0  0  0  0  0  0  0  0  0  0  0  0
   -4.7320   16.8790   58.0640 C   0  0  0  0  0  0  0  0  0  0  0  0
   -3.3350   15.1020   58.7880 O   0  0  0  0  0  0  0  0  0  0  0  0
   -4.9310   16.3750   56.7980 N   0  0  0  0  0  0  0  0  0  0  0  0
   -5.6580   17.0210   55.8640 C   0  0  0  0  0  0  0  0  0  0  0  0
   -4.3400   15.1420   56.4710 O   0  0  0  0  0  0  0  0  0  0  0  0
   -6.2200   18.2040   56.1780 N   0  0  0  0  0  0  0  0  0  0  0  0
   -6.0750   18.7240   57.4320 N   0  0  0  0  0  0  0  0  0  0  0  0
   -7.0000   18.9660   55.1390 C   0  0  0  0  0  0  0  0  0  0  0  0
  1 19  1  0  0  0  0
  1  2  1  0  0  0  0
  1  6  1  0  0  0  0
  2  3  1  0  0  0  0
  3  4  2  0  0  0  0
  3 11  1  0  0  0  0
  4  5  1  0  0  0  0
  4  8  1  0  0  0  0
  5  6  1  0  0  0  0
  5  7  1  0  0  0  0
  6 55  1  0  0  0  0
  8  9  2  0  0  0  0
  9 10  1  0  0  0  0
  9 17  1  0  0  0  0
 10 11  2  0  0  0  0
 10 13  1  0  0  0  0
 11 12  1  0  0  0  0
 13 14  1  0  0  0  0
 13 15  2  0  0  0  0
 15 16  1  0  0  0  0
 16 17  2  0  0  0  0
 16 62  1  0  0  0  0
 17 18  1  0  0  0  0
 19 20  1  0  0  0  0
 19 36  1  0  0  0  0
 20 21  1  0  0  0  0
 20 22  1  0  0  0  0
 21 23  1  0  0  0  0
 21 24  1  0  0  0  0
 22 27  1  0  0  0  0
 22 34  2  0  0  0  0
 24 25  1  0  0  0  0
 25 26  1  0  0  0  0
 25 27  1  0  0  0  0
 26 28  1  0  0  0  0
 27 30  2  0  0  0  0
 28 29  1  0  0  0  0
 29 30  1  0  0  0  0
 29 31  1  0  0  0  0
 30 32  1  0  0  0  0
 32 33  2  0  0  0  0
 32 37  1  0  0  0  0
 33 34  1  0  0  0  0
 34 35  1  0  0  0  0
 35 36  1  0  0  0  0
 37 38  2  0  0  0  0
 37 53  1  0  0  0  0
 38 39  1  0  0  0  0
 39 40  1  0  0  0  0
 39 41  2  0  0  0  0
 40 42  1  0  0  0  0
 40 43  1  0  0  0  0
 41 50  1  0  0  0  0
 41 52  1  0  0  0  0
 42 44  1  0  0  0  0
 43 46  1  0  0  0  0
 43 49  1  0  0  0  0
 44 45  1  0  0  0  0
 45 46  1  0  0  0  0
 45 47  1  0  0  0  0
 46 48  1  0  0  0  0
 49 50  1  0  0  0  0
 50 51  1  0  0  0  0
 52 53  2  0  0  0  0
 53 54  1  0  0  0  0
 55 56  1  0  0  0  0
 56 57  2  0  0  0  0
 56 61  1  0  0  0  0
 57 58  1  0  0  0  0
 58 59  2  0  0  0  0
 59 60  1  0  0  0  0
 60 61  2  0  0  0  0
 62 63  2  0  0  0  0
 62 72  1  0  0  0  0
 63 64  1  0  0  0  0
 64 65  2  0  0  0  0
 64 66  1  0  0  0  0
 65 67  1  0  0  0  0
 65 75  1  0  0  0  0
 66 70  2  0  0  0  0
 66 71  1  0  0  0  0
 67 68  1  0  0  0  0
 67 69  2  0  0  0  0
 69 70  1  0  0  0  0
 71 72  2  0  0  0  0
 71 73  1  0  0  0  0
 72 74  1  0  0  0  0
 75 76  2  0  0  0  0
 75 82  1  0  0  0  0
 76 77  1  0  0  0  0
 76 78  1  0  0  0  0
 78 79  2  0  0  0  0
 79 80  1  0  0  0  0
 79 81  1  0  0  0  0
 80 82  2  0  0  0  0
 80 83  1  0  0  0  0
 81 86  2  0  0  0  0
 81 92  1  0  0  0  0
 82 84  1  0  0  0  0
 83 85  2  0  0  0  0
 85 86  1  0  0  0  0
 85 87  1  0  0  0  0
 86 88  1  0  0  0  0
 88 89  2  0  0  0  0
 88 90  1  0  0  0  0
 89 91  1  0  0  0  0
 91 92  2  0  0  0  0
 91 93  1  0  0  0  0
M  CHG  8  66   1  71   1  75   1  76   1  85   1  81   1  91   1  88   1
M  END