
 OpenBabel11222001393D

 54 63  0  0  1  0  0  0  0  0999 V2000
  -11.1520   15.5700   67.2130 C   0  0  0  0  0  0  0  0  0  0  0  0
  -10.5320   16.5710   67.8720 C   0  0  0  0  0  0  0  0  0  0  0  0
  -10.6140   16.7400   69.2570 O   0  0  0  0  0  0  0  0  0  0  0  0
  -11.3370   15.8160   70.0250 C   0  0  0  0  0  0  0  0  0  0  0  0
  -11.9380   14.7540   69.4550 C   0  0  0  0  0  0  0  0  0  0  0  0
  -11.9260   14.5210   67.9710 C   0  0  0  0  0  0  0  0  0  0  0  0
  -12.6890   13.7320   70.2650 C   0  0  0  0  0  0  0  0  0  0  0  0
  -11.9780   12.5120   70.1640 O   0  0  0  0  0  0  0  0  0  0  0  0
  -12.4380   11.4530   70.8840 C   0  0  0  0  0  0  0  0  0  0  0  0
  -12.0410   10.3180   70.6630 O   0  0  0  0  0  0  0  0  0  0  0  0
  -13.3370   11.7340   71.8570 O   0  0  0  0  0  0  0  0  0  0  0  0
  -13.5040   13.0310   72.4200 C   0  0  0  0  0  0  0  0  0  0  0  0
  -12.7160   14.0680   71.7050 C   0  0  0  0  0  0  0  0  0  0  0  0
  -12.0990   15.1540   72.2200 C   0  0  0  0  0  0  0  0  0  0  0  0
  -11.4000   16.0210   71.3880 O   0  0  0  0  0  0  0  0  0  0  0  0
  -14.8510   13.4260   72.2780 O   0  0  0  0  0  0  0  0  0  0  0  0
   -9.6500   17.5380   67.1730 C   0  0  0  0  0  0  0  0  0  0  0  0
  -10.2520   18.6190   66.5280 C   0  0  0  0  0  0  0  0  0  0  0  0
   -9.5120   19.5380   65.8980 N   0  0  0  0  0  0  0  0  0  0  0  0
  -10.1260   20.5440   65.2450 F   0  0  0  0  0  0  0  0  0  0  0  0
   -8.1960   19.4900   65.8710 N   0  0  0  0  0  0  0  0  0  0  0  0
   -7.5550   18.4940   66.4890 C   0  0  0  0  0  0  0  0  0  0  0  0
   -8.2390   17.4610   67.1570 C   0  0  0  0  0  0  0  0  0  0  0  0
   -6.1630   18.4630   66.4530 C   0  0  0  0  0  0  0  0  0  0  0  0
   -7.4780   16.4150   67.7400 C   0  0  0  0  0  0  0  0  0  0  0  0
   -6.0720   16.3910   67.6550 C   0  0  0  0  0  0  0  0  0  0  0  0
   -5.2850   15.2130   68.0870 C   0  0  0  0  0  0  0  0  0  0  0  0
   -5.4090   17.4350   67.0280 C   0  0  0  0  0  0  0  0  0  0  0  0
   -5.7820   14.2210   68.7570 N   0  0  0  0  0  0  0  0  0  0  0  0
   -3.8370   15.1630   67.5910 C   0  0  0  0  0  0  0  0  0  0  0  0
   -3.0270   14.3000   68.4730 N   0  0  0  0  0  0  0  0  0  0  0  0
   -3.2380   16.5650   67.5550 C   0  0  0  0  0  0  0  0  0  0  0  0
   -2.7870   14.7140   69.7590 N   0  0  0  0  0  0  0  0  0  0  0  0
   -2.4620   15.9520   69.9560 C   0  0  0  0  0  0  0  0  0  0  0  0
   -2.8430   16.9960   68.9420 C   0  0  0  0  0  0  0  0  0  0  0  0
   -1.5300   16.6880   69.2930 O   0  0  0  0  0  0  0  0  0  0  0  0
   -3.3930   18.2150   69.4770 O   0  0  0  0  0  0  0  0  0  0  0  0
   -4.0590   17.5320   66.8770 O   0  0  0  0  0  0  0  0  0  0  0  0
   -5.5240   19.4480   65.8000 F   0  0  0  0  0  0  0  0  0  0  0  0
  -11.0110   15.4310   65.8400 O   0  0  0  0  0  0  0  0  0  0  0  0
  -10.6660   14.1210   65.3400 C   0  0  0  0  0  0  0  0  0  0  0  0
  -10.0680   13.3250   66.3610 O   0  0  0  0  0  0  0  0  0  0  0  0
   -9.7350   12.0300   65.9850 C   0  0  0  0  0  0  0  0  0  0  0  0
   -8.7910   11.3540   66.6500 C   0  0  0  0  0  0  0  0  0  0  0  0
  -10.4230   11.3200   64.8590 C   0  0  0  0  0  0  0  0  0  0  0  0
   -8.0900   11.8900   67.7020 O   0  0  0  0  0  0  0  0  0  0  0  0
  -11.5840   12.0870   64.2550 C   0  0  0  0  0  0  0  0  0  0  0  0
  -10.0640   10.2420   64.4180 O   0  0  0  0  0  0  0  0  0  0  0  0
  -11.9170   13.4340   64.8370 C   0  0  0  0  0  0  0  0  0  0  0  0
  -12.1660   11.6980   63.2580 O   0  0  0  0  0  0  0  0  0  0  0  0
  -13.0500   13.8840   64.8720 O   0  0  0  0  0  0  0  0  0  0  0  0
  -12.1430   15.5400   73.6530 C   0  0  0  0  0  0  0  0  0  0  0  0
  -11.9910   16.9210   74.0340 O   0  0  0  0  0  0  0  0  0  0  0  0
  -13.2630   16.2630   74.1770 O   0  0  0  0  0  0  0  0  0  0  0  0
  1 40  1  0  0  0  0
  1  2  2  0  0  0  0
  1  6  1  0  0  0  0
  2  3  1  0  0  0  0
  2 17  1  0  0  0  0
  3  4  1  0  0  0  0
  4  5  2  0  0  0  0
  4 15  1  0  0  0  0
  5  6  1  0  0  0  0
  5  7  1  0  0  0  0
  7  8  1  0  0  0  0
  7 13  1  0  0  0  0
  8  9  1  0  0  0  0
  9 10  2  0  0  0  0
  9 11  1  0  0  0  0
 11 12  1  0  0  0  0
 12 13  1  0  0  0  0
 12 16  1  0  0  0  0
 13 14  2  0  0  0  0
 14 15  1  0  0  0  0
 14 52  1  0  0  0  0
 17 18  2  0  0  0  0
 17 23  1  0  0  0  0
 18 19  1  0  0  0  0
 19 20  1  0  0  0  0
 19 21  2  0  0  0  0
 21 22  1  0  0  0  0
 22 23  2  0  0  0  0
 22 24  1  0  0  0  0
 23 25  1  0  0  0  0
 24 28  2  0  0  0  0
 24 39  1  0  0  0  0
 25 26  2  0  0  0  0
 26 27  1  0  0  0  0
 26 28  1  0  0  0  0
 27 29  2  0  0  0  0
 27 30  1  0  0  0  0
 28 38  1  0  0  0  0
 30 31  1  0  0  0  0
 30 32  1  0  0  0  0
 31 33  1  0  0  0  0
 32 35  1  0  0  0  0
 32 38  1  0  0  0  0
 33 34  2  0  0  0  0
 34 35  1  0  0  0  0
 34 36  1  0  0  0  0
 35 37  1  0  0  0  0
 35 36  1  0  0  0  0
 40 41  1  0  0  0  0
 41 42  1  0  0  0  0
 41 49  1  0  0  0  0
 42 43  1  0  0  0  0
 43 44  2  0  0  0  0
 43 45  1  0  0  0  0
 44 46  1  0  0  0  0
 45 47  1  0  0  0  0
 45 48  2  0  0  0  0
 47 49  1  0  0  0  0
 47 50  2  0  0  0  0
 49 51  2  0  0  0  0
 52 53  1  0  0  0  0
 52 54  1  0  0  0  0
 53 54  1  0  0  0  0
M  CHG  2  15   1  19   1
M  END