
 OpenBabel10202001103D

 51 59  0  0  1  0  0  0  0  0999 V2000
  -10.0630   15.8540   67.7030 C   0  0  0  0  0  0  0  0  0  0  0  0
  -10.1460   17.0330   68.3600 C   0  0  0  0  0  0  0  0  0  0  0  0
  -10.8570   17.1910   69.5530 O   0  0  0  0  0  0  0  0  0  0  0  0
  -11.4430   16.0810   70.1500 C   0  0  0  0  0  0  0  0  0  0  0  0
  -11.4210   14.8780   69.5600 C   0  0  0  0  0  0  0  0  0  0  0  0
  -10.7700   14.6340   68.2450 C   0  0  0  0  0  0  0  0  0  0  0  0
  -12.0330   13.7240   70.2740 C   0  0  0  0  0  0  0  0  0  0  0  0
  -12.0300   12.5460   69.7410 N   0  0  0  0  0  0  0  0  0  0  0  0
  -12.6010   11.4940   70.4310 C   0  0  0  0  0  0  0  0  0  0  0  0
  -12.6260   10.3970   69.8880 O   0  0  0  0  0  0  0  0  0  0  0  0
  -13.1310   11.6150   71.7000 N   0  0  0  0  0  0  0  0  0  0  0  0
  -13.1490   12.7780   72.2530 C   0  0  0  0  0  0  0  0  0  0  0  0
  -12.6180   13.9800   71.6080 C   0  0  0  0  0  0  0  0  0  0  0  0
  -12.6040   15.2300   72.1150 C   0  0  0  0  0  0  0  0  0  0  0  0
  -12.0260   16.2580   71.3810 N   0  0  0  0  0  0  0  0  0  0  0  0
   -9.5280   18.2890   67.8750 C   0  0  0  0  0  0  0  0  0  0  0  0
  -10.3830   19.0980   67.2100 N   0  0  0  0  0  0  0  0  0  0  0  0
   -9.8950   20.2790   66.8210 C   0  0  0  0  0  0  0  0  0  0  0  0
   -8.6610   20.7410   67.0600 N   0  0  0  0  0  0  0  0  0  0  0  0
   -7.8280   19.9360   67.7220 C   0  0  0  0  0  0  0  0  0  0  0  0
   -8.1940   18.6480   68.1500 C   0  0  0  0  0  0  0  0  0  0  0  0
   -6.5490   20.4080   68.0040 C   0  0  0  0  0  0  0  0  0  0  0  0
   -7.2250   17.8440   68.8010 C   0  0  0  0  0  0  0  0  0  0  0  0
   -5.9370   18.3380   69.0390 C   0  0  0  0  0  0  0  0  0  0  0  0
   -5.6060   19.6340   68.6810 C   0  0  0  0  0  0  0  0  0  0  0  0
   -4.9150   17.4830   69.6510 C   0  0  0  0  0  0  0  0  0  0  0  0
   -4.3960   20.2200   68.9130 O   0  0  0  0  0  0  0  0  0  0  0  0
   -3.5710   19.6230   69.9210 C   0  0  0  0  0  0  0  0  0  0  0  0
   -3.5720   18.1150   69.9410 C   0  0  0  0  0  0  0  0  0  0  0  0
   -2.6230   17.4430   70.3170 O   0  0  0  0  0  0  0  0  0  0  0  0
   -5.1380   16.3230   69.9560 O   0  0  0  0  0  0  0  0  0  0  0  0
   -3.8640   20.2090   71.2750 C   0  0  0  0  0  0  0  0  0  0  0  0
   -4.7000   19.4080   72.1450 O   0  0  0  0  0  0  0  0  0  0  0  0
   -2.7550   20.8560   71.8990 O   0  0  0  0  0  0  0  0  0  0  0  0
   -3.8170   21.6400   71.6030 C   0  0  0  0  0  0  0  0  0  0  0  0
   -4.5040   22.2970   72.3460 O   0  0  0  0  0  0  0  0  0  0  0  0
   -9.3100   15.7440   66.5470 O   0  0  0  0  0  0  0  0  0  0  0  0
   -9.3350   14.5240   65.7860 C   0  0  0  0  0  0  0  0  0  0  0  0
  -10.6520   14.5850   65.0150 C   0  0  0  0  0  0  0  0  0  0  0  0
  -11.2990   13.2770   64.7990 C   0  0  0  0  0  0  0  0  0  0  0  0
  -11.1280   15.6240   64.5590 O   0  0  0  0  0  0  0  0  0  0  0  0
  -12.5620   13.2580   64.3570 C   0  0  0  0  0  0  0  0  0  0  0  0
  -10.5260   12.0610   65.1070 C   0  0  0  0  0  0  0  0  0  0  0  0
  -13.3070   12.1220   64.2090 O   0  0  0  0  0  0  0  0  0  0  0  0
   -9.5720   12.1760   66.3040 C   0  0  0  0  0  0  0  0  0  0  0  0
  -10.5650   11.0410   64.4360 O   0  0  0  0  0  0  0  0  0  0  0  0
   -9.1590   13.4060   66.6500 O   0  0  0  0  0  0  0  0  0  0  0  0
   -9.2450   11.1810   66.9320 O   0  0  0  0  0  0  0  0  0  0  0  0
  -13.1510   15.6120   73.4370 C   0  0  0  0  0  0  0  0  0  0  0  0
  -12.4210   15.3600   74.6500 O   0  0  0  0  0  0  0  0  0  0  0  0
  -12.6320   16.7120   74.2030 O   0  0  0  0  0  0  0  0  0  0  0  0
  1 37  1  0  0  0  0
  1  2  2  0  0  0  0
  1  6  1  0  0  0  0
  2  3  1  0  0  0  0
  2 16  1  0  0  0  0
  3  4  1  0  0  0  0
  4  5  2  0  0  0  0
  4 15  1  0  0  0  0
  5  6  1  0  0  0  0
  5  7  1  0  0  0  0
  7  8  2  0  0  0  0
  7 13  1  0  0  0  0
  8  9  1  0  0  0  0
  9 10  2  0  0  0  0
  9 11  1  0  0  0  0
 11 12  2  0  0  0  0
 12 13  1  0  0  0  0
 13 14  2  0  0  0  0
 14 15  1  0  0  0  0
 14 49  1  0  0  0  0
 16 17  2  0  0  0  0
 16 21  1  0  0  0  0
 17 18  1  0  0  0  0
 18 19  2  0  0  0  0
 19 20  1  0  0  0  0
 20 21  2  0  0  0  0
 20 22  1  0  0  0  0
 21 23  1  0  0  0  0
 22 25  2  0  0  0  0
 23 24  2  0  0  0  0
 24 25  1  0  0  0  0
 24 26  1  0  0  0  0
 25 27  1  0  0  0  0
 26 29  1  0  0  0  0
 26 31  2  0  0  0  0
 27 28  1  0  0  0  0
 28 29  1  0  0  0  0
 28 32  1  0  0  0  0
 29 30  2  0  0  0  0
 32 33  1  0  0  0  0
 32 34  1  0  0  0  0
 32 35  1  0  0  0  0
 34 35  1  0  0  0  0
 35 36  2  0  0  0  0
 37 38  1  0  0  0  0
 38 39  1  0  0  0  0
 38 47  1  0  0  0  0
 39 40  1  0  0  0  0
 39 41  2  0  0  0  0
 40 42  2  0  0  0  0
 40 43  1  0  0  0  0
 42 44  1  0  0  0  0
 43 45  1  0  0  0  0
 43 46  2  0  0  0  0
 45 47  1  0  0  0  0
 45 48  2  0  0  0  0
 49 50  1  0  0  0  0
 49 51  1  0  0  0  0
 50 51  1  0  0  0  0
M  END
