
 OpenBabel11212020323D

 53 61  0  0  1  0  0  0  0  0999 V2000
  -11.1540   15.6870   67.3010 C   0  0  0  0  0  0  0  0  0  0  0  0
  -10.7960   16.7920   67.9980 C   0  0  0  0  0  0  0  0  0  0  0  0
  -11.0890   16.9150   69.3680 O   0  0  0  0  0  0  0  0  0  0  0  0
  -11.7890   15.9100   70.0420 C   0  0  0  0  0  0  0  0  0  0  0  0
  -12.0850   14.7480   69.4340 C   0  0  0  0  0  0  0  0  0  0  0  0
  -11.7680   14.4980   67.9940 C   0  0  0  0  0  0  0  0  0  0  0  0
  -12.7550   13.6120   70.1490 C   0  0  0  0  0  0  0  0  0  0  0  0
  -11.8180   12.5520   70.1910 O   0  0  0  0  0  0  0  0  0  0  0  0
  -12.1990   11.4050   70.8140 C   0  0  0  0  0  0  0  0  0  0  0  0
  -11.6320   10.3480   70.5980 O   0  0  0  0  0  0  0  0  0  0  0  0
  -13.2400   11.5250   71.6720 O   0  0  0  0  0  0  0  0  0  0  0  0
  -13.6820   12.7700   72.2370 C   0  0  0  0  0  0  0  0  0  0  0  0
  -13.0800   13.9530   71.5530 C   0  0  0  0  0  0  0  0  0  0  0  0
  -12.7970   15.1560   72.1020 C   0  0  0  0  0  0  0  0  0  0  0  0
  -12.1500   16.1370   71.3540 O   0  0  0  0  0  0  0  0  0  0  0  0
  -10.0140   17.9370   67.4050 C   0  0  0  0  0  0  0  0  0  0  0  0
  -10.6360   18.7420   66.4460 C   0  0  0  0  0  0  0  0  0  0  0  0
  -10.0050   19.7660   65.8700 N   0  0  0  0  0  0  0  0  0  0  0  0
  -10.6740   20.5250   64.9800 F   0  0  0  0  0  0  0  0  0  0  0  0
   -8.7460   20.0490   66.1120 N   0  0  0  0  0  0  0  0  0  0  0  0
   -8.0560   19.3190   66.9910 C   0  0  0  0  0  0  0  0  0  0  0  0
   -8.6550   18.2420   67.6910 C   0  0  0  0  0  0  0  0  0  0  0  0
   -6.6980   19.6450   67.2050 C   0  0  0  0  0  0  0  0  0  0  0  0
   -7.8530   17.5600   68.6340 C   0  0  0  0  0  0  0  0  0  0  0  0
   -6.5150   17.9050   68.8550 C   0  0  0  0  0  0  0  0  0  0  0  0
   -5.7200   17.1430   69.8160 C   0  0  0  0  0  0  0  0  0  0  0  0
   -5.9410   18.9590   68.1720 C   0  0  0  0  0  0  0  0  0  0  0  0
   -6.1680   16.1090   70.2900 O   0  0  0  0  0  0  0  0  0  0  0  0
   -4.3410   17.6700   70.1400 C   0  0  0  0  0  0  0  0  0  0  0  0
   -3.5470   16.9650   70.7430 O   0  0  0  0  0  0  0  0  0  0  0  0
   -4.0730   19.0860   69.6690 C   0  0  0  0  0  0  0  0  0  0  0  0
   -4.6580   19.3910   68.3890 O   0  0  0  0  0  0  0  0  0  0  0  0
   -6.1490   20.8160   66.6330 N   0  0  0  0  0  0  0  0  0  0  0  0
   -4.3910   20.1160   70.7310 C   0  0  0  0  0  0  0  0  0  0  0  0
   -5.7400   20.6110   70.7510 O   0  0  0  0  0  0  0  0  0  0  0  0
   -3.8040   19.8940   72.0190 O   0  0  0  0  0  0  0  0  0  0  0  0
   -3.3970   20.9710   71.3530 C   0  0  0  0  0  0  0  0  0  0  0  0
   -2.3100   21.3590   70.9790 O   0  0  0  0  0  0  0  0  0  0  0  0
  -10.8750   15.5630   65.9480 O   0  0  0  0  0  0  0  0  0  0  0  0
  -10.4830   14.2710   65.4430 C   0  0  0  0  0  0  0  0  0  0  0  0
  -10.0880   13.4250   66.5110 O   0  0  0  0  0  0  0  0  0  0  0  0
   -9.6370   12.1900   66.0800 C   0  0  0  0  0  0  0  0  0  0  0  0
   -8.5540   11.6310   66.6310 C   0  0  0  0  0  0  0  0  0  0  0  0
  -10.3420   11.4480   64.9920 C   0  0  0  0  0  0  0  0  0  0  0  0
   -7.8050   12.2520   67.6010 O   0  0  0  0  0  0  0  0  0  0  0  0
  -11.4350   12.2470   64.2980 C   0  0  0  0  0  0  0  0  0  0  0  0
  -10.0420   10.3210   64.6400 O   0  0  0  0  0  0  0  0  0  0  0  0
  -11.6730   13.6810   64.7130 C   0  0  0  0  0  0  0  0  0  0  0  0
  -12.0740   11.7730   63.3750 O   0  0  0  0  0  0  0  0  0  0  0  0
  -12.7030   14.2880   64.4560 O   0  0  0  0  0  0  0  0  0  0  0  0
  -13.1030   15.5240   73.5080 C   0  0  0  0  0  0  0  0  0  0  0  0
  -12.1460   15.2810   74.5470 O   0  0  0  0  0  0  0  0  0  0  0  0
  -12.4300   16.6300   74.1330 O   0  0  0  0  0  0  0  0  0  0  0  0
  1 39  1  0  0  0  0
  1  2  2  0  0  0  0
  1  6  1  0  0  0  0
  2  3  1  0  0  0  0
  2 16  1  0  0  0  0
  3  4  1  0  0  0  0
  4  5  2  0  0  0  0
  4 15  1  0  0  0  0
  5  6  1  0  0  0  0
  5  7  1  0  0  0  0
  7  8  1  0  0  0  0
  7 13  1  0  0  0  0
  8  9  1  0  0  0  0
  9 10  2  0  0  0  0
  9 11  1  0  0  0  0
 11 12  1  0  0  0  0
 12 13  1  0  0  0  0
 13 14  2  0  0  0  0
 14 15  1  0  0  0  0
 14 51  1  0  0  0  0
 16 17  2  0  0  0  0
 16 22  1  0  0  0  0
 17 18  1  0  0  0  0
 18 19  1  0  0  0  0
 18 20  2  0  0  0  0
 20 21  1  0  0  0  0
 21 22  2  0  0  0  0
 21 23  1  0  0  0  0
 22 24  1  0  0  0  0
 23 27  2  0  0  0  0
 23 33  1  0  0  0  0
 24 25  2  0  0  0  0
 25 26  1  0  0  0  0
 25 27  1  0  0  0  0
 26 28  2  0  0  0  0
 26 29  1  0  0  0  0
 27 32  1  0  0  0  0
 29 30  2  0  0  0  0
 29 31  1  0  0  0  0
 31 32  1  0  0  0  0
 31 34  1  0  0  0  0
 34 35  1  0  0  0  0
 34 36  1  0  0  0  0
 34 37  1  0  0  0  0
 36 37  1  0  0  0  0
 37 38  2  0  0  0  0
 39 40  1  0  0  0  0
 40 41  1  0  0  0  0
 40 48  1  0  0  0  0
 41 42  1  0  0  0  0
 42 43  2  0  0  0  0
 42 44  1  0  0  0  0
 43 45  1  0  0  0  0
 44 46  1  0  0  0  0
 44 47  2  0  0  0  0
 46 48  1  0  0  0  0
 46 49  2  0  0  0  0
 48 50  2  0  0  0  0
 51 52  1  0  0  0  0
 51 53  1  0  0  0  0
 52 53  1  0  0  0  0
M  CHG  2  15   1  18   1
M  END