
 OpenBabel10252010213D

 93108  0  0  1  0  0  0  0  0999 V2000
   -8.4500   17.4430   69.2280 C   0  0  0  0  0  0  0  0  0  0  0  0
   -9.9100   17.3540   69.4370 O   0  0  0  0  0  0  0  0  0  0  0  0
  -10.4780   16.1000   69.3490 C   0  0  0  0  0  0  0  0  0  0  0  0
  -10.0320   15.1830   68.4190 C   0  0  0  0  0  0  0  0  0  0  0  0
   -8.7540   15.4990   67.6900 C   0  0  0  0  0  0  0  0  0  0  0  0
   -7.8210   16.1100   68.7500 C   0  0  0  0  0  0  0  0  0  0  0  0
   -8.1800   14.3040   67.1550 O   0  0  0  0  0  0  0  0  0  0  0  0
  -10.6170   13.9130   68.3050 C   0  0  0  0  0  0  0  0  0  0  0  0
  -11.4590   13.4080   69.3170 C   0  0  0  0  0  0  0  0  0  0  0  0
  -11.8800   14.3020   70.3050 C   0  0  0  0  0  0  0  0  0  0  0  0
  -11.4740   15.6870   70.2450 C   0  0  0  0  0  0  0  0  0  0  0  0
  -11.9320   16.5520   71.1500 F   0  0  0  0  0  0  0  0  0  0  0  0
  -12.6540   13.7290   71.3350 C   0  0  0  0  0  0  0  0  0  0  0  0
  -13.4280   14.6300   72.5960 Cl  0  0  0  0  0  0  0  0  0  0  0  0
  -12.7740   12.3150   71.4600 C   0  0  0  0  0  0  0  0  0  0  0  0
  -12.2480   11.3660   70.5580 C   0  0  0  0  0  0  0  0  0  0  0  0
  -11.7650   11.9950   69.3800 C   0  0  0  0  0  0  0  0  0  0  0  0
  -11.7070   11.1240   67.8780 Cl  0  0  0  0  0  0  0  0  0  0  0  0
   -8.0430   18.6630   68.2870 C   0  0  0  0  0  0  0  0  0  0  0  0
   -6.5110   18.6920   68.0110 C   0  0  0  0  0  0  0  0  0  0  0  0
   -5.7430   19.6000   68.9900 C   0  0  0  0  0  0  0  0  0  0  0  0
   -6.0450   19.0630   66.6080 C   0  0  0  0  0  0  0  0  0  0  0  0
   -6.2790   20.8550   68.9520 F   0  0  0  0  0  0  0  0  0  0  0  0
   -4.2410   19.7080   68.6790 C   0  0  0  0  0  0  0  0  0  0  0  0
   -3.8010   18.7190   67.5810 C   0  0  0  0  0  0  0  0  0  0  0  0
   -2.2820   18.7490   67.4170 C   0  0  0  0  0  0  0  0  0  0  0  0
   -4.6630   19.0090   66.3500 C   0  0  0  0  0  0  0  0  0  0  0  0
   -1.8580   19.4890   66.1790 C   0  0  0  0  0  0  0  0  0  0  0  0
   -2.6360   19.0500   64.9470 C   0  0  0  0  0  0  0  0  0  0  0  0
   -4.1290   19.2700   65.0470 C   0  0  0  0  0  0  0  0  0  0  0  0
   -2.3350   17.3230   64.5650 Cl  0  0  0  0  0  0  0  0  0  0  0  0
   -4.9920   19.6580   63.9570 C   0  0  0  0  0  0  0  0  0  0  0  0
   -6.3710   19.7750   64.3260 C   0  0  0  0  0  0  0  0  0  0  0  0
   -6.9010   19.4720   65.6040 C   0  0  0  0  0  0  0  0  0  0  0  0
   -8.3530   19.6620   65.9270 C   0  0  0  0  0  0  0  0  0  0  0  0
   -8.8240   18.6230   66.9440 C   0  0  0  0  0  0  0  0  0  0  0  0
   -4.5710   19.9450   62.4900 C   0  0  0  0  0  0  0  0  0  0  0  0
   -5.3060   19.5420   61.3510 C   0  0  0  0  0  0  0  0  0  0  0  0
   -4.9690   19.7850   59.9950 C   0  0  0  0  0  0  0  0  0  0  0  0
   -5.8460   19.1810   58.9020 C   0  0  0  0  0  0  0  0  0  0  0  0
   -3.8410   20.5390   59.7120 C   0  0  0  0  0  0  0  0  0  0  0  0
   -5.5860   17.6640   58.7970 C   0  0  0  0  0  0  0  0  0  0  0  0
   -5.6600   19.9000   57.5450 C   0  0  0  0  0  0  0  0  0  0  0  0
   -6.3730   17.0110   57.6660 C   0  0  0  0  0  0  0  0  0  0  0  0
   -6.1260   17.6940   56.3140 C   0  0  0  0  0  0  0  0  0  0  0  0
   -6.4630   19.2000   56.4160 C   0  0  0  0  0  0  0  0  0  0  0  0
   -6.9360   16.9780   55.2290 C   0  0  0  0  0  0  0  0  0  0  0  0
   -6.3040   19.9320   55.0770 C   0  0  0  0  0  0  0  0  0  0  0  0
   -4.1580   20.0500   57.2420 C   0  0  0  0  0  0  0  0  0  0  0  0
   -3.4430   20.9050   58.3030 C   0  0  0  0  0  0  0  0  0  0  0  0
   -3.6700   22.4010   58.0510 C   0  0  0  0  0  0  0  0  0  0  0  0
   -3.0720   20.9720   60.7900 C   0  0  0  0  0  0  0  0  0  0  0  0
   -3.4090   20.6630   62.1230 C   0  0  0  0  0  0  0  0  0  0  0  0
   -2.5200   21.0980   63.0260 F   0  0  0  0  0  0  0  0  0  0  0  0
   -7.6690   15.2090   69.8950 O   0  0  0  0  0  0  0  0  0  0  0  0
   -6.3950   14.8070   70.2130 C   0  0  0  0  0  0  0  0  0  0  0  0
   -5.3920   15.7800   70.1100 C   0  0  0  0  0  0  0  0  0  0  0  0
   -4.0650   15.4780   70.4420 C   0  0  0  0  0  0  0  0  0  0  0  0
   -3.7320   14.1990   70.8820 C   0  0  0  0  0  0  0  0  0  0  0  0
   -4.7250   13.2340   71.0050 C   0  0  0  0  0  0  0  0  0  0  0  0
   -6.0520   13.5420   70.6900 C   0  0  0  0  0  0  0  0  0  0  0  0
  -12.2600    9.8400   70.9230 C   0  0  0  0  0  0  0  0  0  0  0  0
  -11.0060    9.1340   70.9640 C   0  0  0  0  0  0  0  0  0  0  0  0
  -10.7870    7.7810   71.4560 C   0  0  0  0  0  0  0  0  0  0  0  0
   -9.5150    6.9920   71.7680 C   0  0  0  0  0  0  0  0  0  0  0  0
  -11.9950    7.1130   71.6950 N   0  0  0  0  0  0  0  0  0  0  0  0
   -9.6210    5.7120   72.3370 C   0  0  0  0  0  0  0  0  0  0  0  0
   -8.5190    5.0830   72.9770 N   0  0  0  0  0  0  0  0  0  0  0  0
  -10.8950    5.1900   72.4570 C   0  0  0  0  0  0  0  0  0  0  0  0
  -12.0030    5.8500   72.1200 N   0  0  0  0  0  0  0  0  0  0  0  0
  -13.2140    7.7000   71.5160 N   0  0  0  0  0  0  0  0  0  0  0  0
  -13.3830    9.0070   71.1670 C   0  0  0  0  0  0  0  0  0  0  0  0
  -14.6350    6.7430   71.7860 Cl  0  0  0  0  0  0  0  0  0  0  0  0
  -14.6760    9.3700   71.0280 O   0  0  0  0  0  0  0  0  0  0  0  0
   -8.0050    7.4720   71.6120 N   0  0  0  0  0  0  0  0  0  0  0  0
   -7.1810    7.0200   70.5380 N   0  0  0  0  0  0  0  0  0  0  0  0
   -7.8570    6.6120   68.9920 Cl  0  0  0  0  0  0  0  0  0  0  0  0
   -5.7980    7.1260   70.5620 C   0  0  0  0  0  0  0  0  0  0  0  0
   -5.0890    7.9450   71.4770 C   0  0  0  0  0  0  0  0  0  0  0  0
   -5.9060    8.6300   72.3650 C   0  0  0  0  0  0  0  0  0  0  0  0
   -3.6720    8.1450   71.5740 N   0  0  0  0  0  0  0  0  0  0  0  0
   -7.3440    8.2690   72.5370 C   0  0  0  0  0  0  0  0  0  0  0  0
   -5.3120    9.5790   73.0970 N   0  0  0  0  0  0  0  0  0  0  0  0
   -7.8930    8.6210   73.7690 N   0  0  0  0  0  0  0  0  0  0  0  0
   -4.0100    9.9460   73.0310 N   0  0  0  0  0  0  0  0  0  0  0  0
   -3.0930    9.1980   72.3270 C   0  0  0  0  0  0  0  0  0  0  0  0
   -3.6550   11.3460   73.9480 Cl  0  0  0  0  0  0  0  0  0  0  0  0
   -1.7180    9.3220   72.2950 N   0  0  0  0  0  0  0  0  0  0  0  0
   -0.9300    8.3850   71.7220 C   0  0  0  0  0  0  0  0  0  0  0  0
   -0.8500   10.6400   72.9710 Cl  0  0  0  0  0  0  0  0  0  0  0  0
   -1.4770    7.3150   71.1280 N   0  0  0  0  0  0  0  0  0  0  0  0
   -2.8270    7.2310   70.9900 N   0  0  0  0  0  0  0  0  0  0  0  0
   -0.5890    6.1980   70.6380 C   0  0  0  0  0  0  0  0  0  0  0  0
  1 19  1  0  0  0  0
  1  2  1  0  0  0  0
  1  6  1  0  0  0  0
  2  3  1  0  0  0  0
  3  4  2  0  0  0  0
  3 11  1  0  0  0  0
  4  5  1  0  0  0  0
  4  8  1  0  0  0  0
  5  6  1  0  0  0  0
  5  7  1  0  0  0  0
  6 55  1  0  0  0  0
  8  9  2  0  0  0  0
  9 10  1  0  0  0  0
  9 17  1  0  0  0  0
 10 11  2  0  0  0  0
 10 13  1  0  0  0  0
 11 12  1  0  0  0  0
 13 14  1  0  0  0  0
 13 15  2  0  0  0  0
 15 16  1  0  0  0  0
 16 17  2  0  0  0  0
 16 62  1  0  0  0  0
 17 18  1  0  0  0  0
 19 20  1  0  0  0  0
 19 36  1  0  0  0  0
 20 21  1  0  0  0  0
 20 22  1  0  0  0  0
 21 23  1  0  0  0  0
 21 24  1  0  0  0  0
 22 27  1  0  0  0  0
 22 34  2  0  0  0  0
 24 25  1  0  0  0  0
 25 26  1  0  0  0  0
 25 27  1  0  0  0  0
 26 28  1  0  0  0  0
 27 30  2  0  0  0  0
 28 29  1  0  0  0  0
 29 30  1  0  0  0  0
 29 31  1  0  0  0  0
 30 32  1  0  0  0  0
 32 33  2  0  0  0  0
 32 37  1  0  0  0  0
 33 34  1  0  0  0  0
 34 35  1  0  0  0  0
 35 36  1  0  0  0  0
 37 38  2  0  0  0  0
 37 53  1  0  0  0  0
 38 39  1  0  0  0  0
 39 40  1  0  0  0  0
 39 41  2  0  0  0  0
 40 42  1  0  0  0  0
 40 43  1  0  0  0  0
 41 50  1  0  0  0  0
 41 52  1  0  0  0  0
 42 44  1  0  0  0  0
 43 46  1  0  0  0  0
 43 49  1  0  0  0  0
 44 45  1  0  0  0  0
 45 46  1  0  0  0  0
 45 47  1  0  0  0  0
 46 48  1  0  0  0  0
 49 50  1  0  0  0  0
 50 51  1  0  0  0  0
 52 53  2  0  0  0  0
 53 54  1  0  0  0  0
 55 56  1  0  0  0  0
 56 57  2  0  0  0  0
 56 61  1  0  0  0  0
 57 58  1  0  0  0  0
 58 59  2  0  0  0  0
 59 60  1  0  0  0  0
 60 61  2  0  0  0  0
 62 63  2  0  0  0  0
 62 72  1  0  0  0  0
 63 64  1  0  0  0  0
 64 65  2  0  0  0  0
 64 66  1  0  0  0  0
 65 67  1  0  0  0  0
 65 75  1  0  0  0  0
 66 70  2  0  0  0  0
 66 71  1  0  0  0  0
 67 68  1  0  0  0  0
 67 69  2  0  0  0  0
 69 70  1  0  0  0  0
 71 72  2  0  0  0  0
 71 73  1  0  0  0  0
 72 74  1  0  0  0  0
 75 76  2  0  0  0  0
 75 82  1  0  0  0  0
 76 77  1  0  0  0  0
 76 78  1  0  0  0  0
 78 79  2  0  0  0  0
 79 80  1  0  0  0  0
 79 81  1  0  0  0  0
 80 82  2  0  0  0  0
 80 83  1  0  0  0  0
 81 86  2  0  0  0  0
 81 92  1  0  0  0  0
 82 84  1  0  0  0  0
 83 85  2  0  0  0  0
 85 86  1  0  0  0  0
 85 87  1  0  0  0  0
 86 88  1  0  0  0  0
 88 89  2  0  0  0  0
 88 90  1  0  0  0  0
 89 91  1  0  0  0  0
 91 92  2  0  0  0  0
 91 93  1  0  0  0  0
M  CHG  8  66   1  71   1  75   1  76   1  85   1  81   1  91   1  88   1
M  END