
 OpenBabel11232001203D

 52 61  0  0  1  0  0  0  0  0999 V2000
  -11.1080   15.9070   67.1760 C   0  0  0  0  0  0  0  0  0  0  0  0
  -10.6340   16.9560   67.8780 C   0  0  0  0  0  0  0  0  0  0  0  0
  -10.8320   17.1160   69.2400 O   0  0  0  0  0  0  0  0  0  0  0  0
  -11.4790   16.1250   69.9640 C   0  0  0  0  0  0  0  0  0  0  0  0
  -11.9800   15.0290   69.3710 C   0  0  0  0  0  0  0  0  0  0  0  0
  -11.8670   14.8150   67.8900 C   0  0  0  0  0  0  0  0  0  0  0  0
  -12.6920   13.9700   70.1590 C   0  0  0  0  0  0  0  0  0  0  0  0
  -12.0070   12.7370   69.9530 O   0  0  0  0  0  0  0  0  0  0  0  0
  -12.2500   11.6620   70.7430 C   0  0  0  0  0  0  0  0  0  0  0  0
  -11.8360   10.5500   70.4460 O   0  0  0  0  0  0  0  0  0  0  0  0
  -12.9470   11.8700   71.8850 O   0  0  0  0  0  0  0  0  0  0  0  0
  -13.3840   13.1470   72.3270 C   0  0  0  0  0  0  0  0  0  0  0  0
  -12.7150   14.2490   71.6080 C   0  0  0  0  0  0  0  0  0  0  0  0
  -12.1780   15.3620   72.1500 C   0  0  0  0  0  0  0  0  0  0  0  0
  -11.5790   16.3230   71.3330 O   0  0  0  0  0  0  0  0  0  0  0  0
  -14.7760   13.2630   72.0850 O   0  0  0  0  0  0  0  0  0  0  0  0
   -9.8060   18.0170   67.2890 C   0  0  0  0  0  0  0  0  0  0  0  0
  -10.3750   18.8200   66.3130 C   0  0  0  0  0  0  0  0  0  0  0  0
   -9.6940   19.7940   65.6820 N   0  0  0  0  0  0  0  0  0  0  0  0
   -8.3870   20.0050   66.0040 N   0  0  0  0  0  0  0  0  0  0  0  0
   -7.7750   19.2620   66.9360 C   0  0  0  0  0  0  0  0  0  0  0  0
   -8.4530   18.2350   67.6260 C   0  0  0  0  0  0  0  0  0  0  0  0
   -6.4380   19.5150   67.2260 C   0  0  0  0  0  0  0  0  0  0  0  0
   -7.7450   17.4860   68.5990 C   0  0  0  0  0  0  0  0  0  0  0  0
   -6.4000   17.7570   68.8680 C   0  0  0  0  0  0  0  0  0  0  0  0
   -5.7510   18.7830   68.1920 C   0  0  0  0  0  0  0  0  0  0  0  0
   -5.6550   16.9510   69.8520 C   0  0  0  0  0  0  0  0  0  0  0  0
   -4.4380   19.1240   68.4110 O   0  0  0  0  0  0  0  0  0  0  0  0
   -3.9270   18.6900   69.6900 C   0  0  0  0  0  0  0  0  0  0  0  0
   -4.1900   17.2880   70.0360 C   0  0  0  0  0  0  0  0  0  0  0  0
   -2.6730   19.2060   70.0690 O   0  0  0  0  0  0  0  0  0  0  0  0
   -3.8360   19.6640   70.8260 C   0  0  0  0  0  0  0  0  0  0  0  0
   -3.3610   16.4990   70.4520 O   0  0  0  0  0  0  0  0  0  0  0  0
   -4.5150   20.9040   70.3810 O   0  0  0  0  0  0  0  0  0  0  0  0
   -3.5320   21.0030   71.2420 C   0  0  0  0  0  0  0  0  0  0  0  0
   -3.4500   21.5470   72.3250 O   0  0  0  0  0  0  0  0  0  0  0  0
   -6.1800   16.0650   70.5060 O   0  0  0  0  0  0  0  0  0  0  0  0
  -10.8180   15.7740   65.8240 O   0  0  0  0  0  0  0  0  0  0  0  0
  -10.6490   14.4600   65.2710 C   0  0  0  0  0  0  0  0  0  0  0  0
  -10.2290   13.5290   66.2580 O   0  0  0  0  0  0  0  0  0  0  0  0
   -9.9870   12.2420   65.8260 C   0  0  0  0  0  0  0  0  0  0  0  0
   -9.1530   11.4470   66.5050 C   0  0  0  0  0  0  0  0  0  0  0  0
  -10.6890   11.6740   64.6470 C   0  0  0  0  0  0  0  0  0  0  0  0
   -8.4880   11.8680   67.6280 O   0  0  0  0  0  0  0  0  0  0  0  0
  -11.8220   12.5310   64.1280 C   0  0  0  0  0  0  0  0  0  0  0  0
  -10.3960   10.6130   64.1200 O   0  0  0  0  0  0  0  0  0  0  0  0
  -11.8550   14.0030   64.4520 C   0  0  0  0  0  0  0  0  0  0  0  0
  -12.7160   12.0270   63.4660 O   0  0  0  0  0  0  0  0  0  0  0  0
  -12.7560   14.7230   64.0410 O   0  0  0  0  0  0  0  0  0  0  0  0
  -12.1790   15.6710   73.5950 C   0  0  0  0  0  0  0  0  0  0  0  0
  -12.2500   17.0210   74.0810 O   0  0  0  0  0  0  0  0  0  0  0  0
  -13.3630   16.1250   74.2700 O   0  0  0  0  0  0  0  0  0  0  0  0
  1 38  1  0  0  0  0
  1  2  2  0  0  0  0
  1  6  1  0  0  0  0
  2  3  1  0  0  0  0
  2 17  1  0  0  0  0
  3  4  1  0  0  0  0
  4  5  2  0  0  0  0
  4 15  1  0  0  0  0
  5  6  1  0  0  0  0
  5  7  1  0  0  0  0
  7  8  1  0  0  0  0
  7 13  1  0  0  0  0
  8  9  1  0  0  0  0
  9 10  2  0  0  0  0
  9 11  1  0  0  0  0
 11 12  1  0  0  0  0
 12 13  1  0  0  0  0
 12 16  1  0  0  0  0
 13 14  2  0  0  0  0
 14 15  1  0  0  0  0
 14 50  1  0  0  0  0
 17 18  2  0  0  0  0
 17 22  1  0  0  0  0
 18 19  1  0  0  0  0
 19 20  2  0  0  0  0
 20 21  1  0  0  0  0
 21 22  2  0  0  0  0
 21 23  1  0  0  0  0
 22 24  1  0  0  0  0
 23 26  2  0  0  0  0
 24 25  2  0  0  0  0
 25 26  1  0  0  0  0
 25 27  1  0  0  0  0
 26 28  1  0  0  0  0
 27 30  1  0  0  0  0
 27 37  2  0  0  0  0
 28 29  1  0  0  0  0
 29 30  1  0  0  0  0
 29 31  1  0  0  0  0
 29 32  1  0  0  0  0
 30 33  2  0  0  0  0
 31 32  1  0  0  0  0
 32 34  1  0  0  0  0
 32 35  1  0  0  0  0
 34 35  1  0  0  0  0
 35 36  2  0  0  0  0
 38 39  1  0  0  0  0
 39 40  1  0  0  0  0
 39 47  1  0  0  0  0
 40 41  1  0  0  0  0
 41 42  2  0  0  0  0
 41 43  1  0  0  0  0
 42 44  1  0  0  0  0
 43 45  1  0  0  0  0
 43 46  2  0  0  0  0
 45 47  1  0  0  0  0
 45 48  2  0  0  0  0
 47 49  2  0  0  0  0
 50 51  1  0  0  0  0
 50 52  1  0  0  0  0
 51 52  1  0  0  0  0
M  END
