
 OpenBabel11222015523D

 54 63  0  0  1  0  0  0  0  0999 V2000
  -10.9030   15.6580   67.4880 C   0  0  0  0  0  0  0  0  0  0  0  0
  -10.4190   16.7540   68.1230 C   0  0  0  0  0  0  0  0  0  0  0  0
  -10.5490   16.9290   69.5120 O   0  0  0  0  0  0  0  0  0  0  0  0
  -11.3630   16.0470   70.2430 C   0  0  0  0  0  0  0  0  0  0  0  0
  -11.7980   14.8950   69.7010 C   0  0  0  0  0  0  0  0  0  0  0  0
  -11.4700   14.5150   68.2990 C   0  0  0  0  0  0  0  0  0  0  0  0
  -12.7150   13.9470   70.4290 C   0  0  0  0  0  0  0  0  0  0  0  0
  -12.0150   12.7360   70.6460 O   0  0  0  0  0  0  0  0  0  0  0  0
  -12.6870   11.7630   71.3210 C   0  0  0  0  0  0  0  0  0  0  0  0
  -12.2890   10.6020   71.3310 O   0  0  0  0  0  0  0  0  0  0  0  0
  -13.8190   12.1520   71.9510 O   0  0  0  0  0  0  0  0  0  0  0  0
  -13.9880   13.4830   72.4330 C   0  0  0  0  0  0  0  0  0  0  0  0
  -13.0790   14.4530   71.7650 C   0  0  0  0  0  0  0  0  0  0  0  0
  -12.6090   15.6190   72.2620 C   0  0  0  0  0  0  0  0  0  0  0  0
  -11.7170   16.3930   71.5290 O   0  0  0  0  0  0  0  0  0  0  0  0
  -15.2900   13.9230   72.1040 O   0  0  0  0  0  0  0  0  0  0  0  0
   -9.6690   17.8380   67.4230 C   0  0  0  0  0  0  0  0  0  0  0  0
  -10.3860   18.7320   66.6260 C   0  0  0  0  0  0  0  0  0  0  0  0
   -9.7870   19.7890   66.0600 N   0  0  0  0  0  0  0  0  0  0  0  0
  -10.4970   20.5950   65.2470 F   0  0  0  0  0  0  0  0  0  0  0  0
   -8.5240   20.0880   66.2760 N   0  0  0  0  0  0  0  0  0  0  0  0
   -7.7670   19.2700   67.0080 C   0  0  0  0  0  0  0  0  0  0  0  0
   -8.2810   18.0660   67.5520 C   0  0  0  0  0  0  0  0  0  0  0  0
   -6.4360   19.6240   67.2340 C   0  0  0  0  0  0  0  0  0  0  0  0
   -7.3820   17.1660   68.1650 C   0  0  0  0  0  0  0  0  0  0  0  0
   -6.0460   17.5250   68.2900 C   0  0  0  0  0  0  0  0  0  0  0  0
   -5.0230   16.6260   68.8110 C   0  0  0  0  0  0  0  0  0  0  0  0
   -5.5670   18.7890   67.9190 C   0  0  0  0  0  0  0  0  0  0  0  0
   -4.7730   15.4400   69.1800 O   0  0  0  0  0  0  0  0  0  0  0  0
   -3.8240   17.0860   69.1790 C   0  0  0  0  0  0  0  0  0  0  0  0
   -3.4330   15.9470   69.5880 O   0  0  0  0  0  0  0  0  0  0  0  0
   -3.5000   18.5680   69.2030 C   0  0  0  0  0  0  0  0  0  0  0  0
   -4.2680   19.2210   68.1310 O   0  0  0  0  0  0  0  0  0  0  0  0
   -5.9900   20.7990   66.7630 F   0  0  0  0  0  0  0  0  0  0  0  0
   -3.8510   19.2520   70.5290 C   0  0  0  0  0  0  0  0  0  0  0  0
   -4.8390   18.5970   71.3450 O   0  0  0  0  0  0  0  0  0  0  0  0
   -2.7270   19.7760   71.2560 O   0  0  0  0  0  0  0  0  0  0  0  0
   -3.6690   20.7430   70.7850 C   0  0  0  0  0  0  0  0  0  0  0  0
   -4.3900   21.4020   71.8750 N   0  0  0  0  0  0  0  0  0  0  0  0
  -10.8510   15.5210   66.1010 O   0  0  0  0  0  0  0  0  0  0  0  0
  -10.2930   14.2830   65.5490 C   0  0  0  0  0  0  0  0  0  0  0  0
   -9.8320   13.4170   66.5840 O   0  0  0  0  0  0  0  0  0  0  0  0
   -9.4980   12.1480   66.1330 C   0  0  0  0  0  0  0  0  0  0  0  0
   -8.2900   11.6250   66.3600 C   0  0  0  0  0  0  0  0  0  0  0  0
  -10.5000   11.3490   65.3780 C   0  0  0  0  0  0  0  0  0  0  0  0
   -7.2980   12.3380   66.9780 O   0  0  0  0  0  0  0  0  0  0  0  0
  -11.6020   12.2300   64.8380 C   0  0  0  0  0  0  0  0  0  0  0  0
  -10.4740   10.1490   65.1950 O   0  0  0  0  0  0  0  0  0  0  0  0
  -11.2720   13.6700   64.5370 C   0  0  0  0  0  0  0  0  0  0  0  0
  -12.7720   11.8800   64.8610 O   0  0  0  0  0  0  0  0  0  0  0  0
  -11.8600   14.2840   63.6610 O   0  0  0  0  0  0  0  0  0  0  0  0
  -12.9870   16.1420   73.5930 C   0  0  0  0  0  0  0  0  0  0  0  0
  -12.3650   15.6470   74.7840 O   0  0  0  0  0  0  0  0  0  0  0  0
  -12.0800   16.9820   74.3260 O   0  0  0  0  0  0  0  0  0  0  0  0
  1 40  1  0  0  0  0
  1  2  2  0  0  0  0
  1  6  1  0  0  0  0
  2  3  1  0  0  0  0
  2 17  1  0  0  0  0
  3  4  1  0  0  0  0
  4  5  2  0  0  0  0
  4 15  1  0  0  0  0
  5  6  1  0  0  0  0
  5  7  1  0  0  0  0
  7  8  1  0  0  0  0
  7 13  1  0  0  0  0
  8  9  1  0  0  0  0
  9 10  2  0  0  0  0
  9 11  1  0  0  0  0
 11 12  1  0  0  0  0
 12 13  1  0  0  0  0
 12 16  1  0  0  0  0
 13 14  2  0  0  0  0
 14 15  1  0  0  0  0
 14 52  1  0  0  0  0
 17 18  2  0  0  0  0
 17 23  1  0  0  0  0
 18 19  1  0  0  0  0
 19 20  1  0  0  0  0
 19 21  2  0  0  0  0
 21 22  1  0  0  0  0
 22 23  2  0  0  0  0
 22 24  1  0  0  0  0
 23 25  1  0  0  0  0
 24 28  2  0  0  0  0
 24 34  1  0  0  0  0
 25 26  2  0  0  0  0
 26 27  1  0  0  0  0
 26 28  1  0  0  0  0
 27 29  1  0  0  0  0
 27 30  2  0  0  0  0
 28 33  1  0  0  0  0
 29 31  1  0  0  0  0
 30 31  1  0  0  0  0
 30 32  1  0  0  0  0
 32 33  1  0  0  0  0
 32 35  1  0  0  0  0
 35 36  1  0  0  0  0
 35 37  1  0  0  0  0
 35 38  1  0  0  0  0
 37 38  1  0  0  0  0
 38 39  1  0  0  0  0
 40 41  1  0  0  0  0
 41 42  1  0  0  0  0
 41 49  1  0  0  0  0
 42 43  1  0  0  0  0
 43 44  2  0  0  0  0
 43 45  1  0  0  0  0
 44 46  1  0  0  0  0
 45 47  1  0  0  0  0
 45 48  2  0  0  0  0
 47 49  1  0  0  0  0
 47 50  2  0  0  0  0
 49 51  2  0  0  0  0
 52 53  1  0  0  0  0
 52 54  1  0  0  0  0
 53 54  1  0  0  0  0
M  CHG  2  15   1  19   1
M  END