
 OpenBabel11152011453D

 52 60  0  0  1  0  0  0  0  0999 V2000
  -10.9630   15.9510   67.1000 C   0  0  0  0  0  0  0  0  0  0  0  0
  -10.5820   17.0100   67.8430 C   0  0  0  0  0  0  0  0  0  0  0  0
  -10.9650   17.1850   69.1720 O   0  0  0  0  0  0  0  0  0  0  0  0
  -11.5590   16.1340   69.8560 C   0  0  0  0  0  0  0  0  0  0  0  0
  -11.9520   15.0150   69.2240 C   0  0  0  0  0  0  0  0  0  0  0  0
  -11.8000   14.8690   67.7390 C   0  0  0  0  0  0  0  0  0  0  0  0
  -12.5730   13.8580   69.9570 C   0  0  0  0  0  0  0  0  0  0  0  0
  -11.7540   12.7110   69.7790 O   0  0  0  0  0  0  0  0  0  0  0  0
  -12.1930   11.5690   70.3780 C   0  0  0  0  0  0  0  0  0  0  0  0
  -11.7520   10.4680   70.0970 O   0  0  0  0  0  0  0  0  0  0  0  0
  -13.1930   11.7570   71.2780 O   0  0  0  0  0  0  0  0  0  0  0  0
  -13.0870   12.8810   72.1380 C   0  0  0  0  0  0  0  0  0  0  0  0
  -12.6040   14.0940   71.4230 C   0  0  0  0  0  0  0  0  0  0  0  0
  -12.1900   15.2480   71.9930 C   0  0  0  0  0  0  0  0  0  0  0  0
  -11.7190   16.2860   71.2090 O   0  0  0  0  0  0  0  0  0  0  0  0
  -14.3780   13.2240   72.6030 O   0  0  0  0  0  0  0  0  0  0  0  0
   -9.6620   18.0570   67.3700 C   0  0  0  0  0  0  0  0  0  0  0  0
  -10.2310   18.9370   66.5210 N   0  0  0  0  0  0  0  0  0  0  0  0
   -9.4790   19.8220   65.9330 N   0  0  0  0  0  0  0  0  0  0  0  0
   -8.1710   19.8240   66.0660 N   0  0  0  0  0  0  0  0  0  0  0  0
   -7.5670   18.9580   66.8880 C   0  0  0  0  0  0  0  0  0  0  0  0
   -8.2960   18.0360   67.6280 C   0  0  0  0  0  0  0  0  0  0  0  0
   -6.1760   18.9420   66.9860 C   0  0  0  0  0  0  0  0  0  0  0  0
   -7.6300   17.1680   68.5260 C   0  0  0  0  0  0  0  0  0  0  0  0
   -6.2390   17.2190   68.6510 C   0  0  0  0  0  0  0  0  0  0  0  0
   -5.5010   18.0770   67.8510 C   0  0  0  0  0  0  0  0  0  0  0  0
   -5.5610   16.3460   69.6100 C   0  0  0  0  0  0  0  0  0  0  0  0
   -4.1390   18.1330   67.8150 O   0  0  0  0  0  0  0  0  0  0  0  0
   -3.4280   17.5450   68.9080 C   0  0  0  0  0  0  0  0  0  0  0  0
   -4.0530   16.3290   69.5580 C   0  0  0  0  0  0  0  0  0  0  0  0
   -3.4270   15.3820   70.0090 O   0  0  0  0  0  0  0  0  0  0  0  0
   -6.1880   15.6230   70.3690 O   0  0  0  0  0  0  0  0  0  0  0  0
   -3.1220   18.5920   69.9240 C   0  0  0  0  0  0  0  0  0  0  0  0
   -4.1460   18.8390   70.9170 O   0  0  0  0  0  0  0  0  0  0  0  0
   -1.7740   18.5980   70.3990 O   0  0  0  0  0  0  0  0  0  0  0  0
   -2.1710   19.6850   69.7050 C   0  0  0  0  0  0  0  0  0  0  0  0
   -2.2310   20.8420   70.0410 O   0  0  0  0  0  0  0  0  0  0  0  0
  -10.4520   15.7600   65.8240 O   0  0  0  0  0  0  0  0  0  0  0  0
  -10.2270   14.4320   65.2980 C   0  0  0  0  0  0  0  0  0  0  0  0
   -9.7960   13.5270   66.2910 O   0  0  0  0  0  0  0  0  0  0  0  0
   -9.7020   12.1920   65.9980 C   0  0  0  0  0  0  0  0  0  0  0  0
   -8.9760   11.3980   66.7950 C   0  0  0  0  0  0  0  0  0  0  0  0
  -10.4670   11.5680   64.8910 C   0  0  0  0  0  0  0  0  0  0  0  0
   -8.3350   11.8720   67.9160 O   0  0  0  0  0  0  0  0  0  0  0  0
  -11.3970   12.5060   64.1490 C   0  0  0  0  0  0  0  0  0  0  0  0
  -10.4000   10.3810   64.6150 O   0  0  0  0  0  0  0  0  0  0  0  0
  -11.4360   13.9740   64.4990 C   0  0  0  0  0  0  0  0  0  0  0  0
  -12.1290   12.0760   63.2710 O   0  0  0  0  0  0  0  0  0  0  0  0
  -12.3580   14.6920   64.1400 O   0  0  0  0  0  0  0  0  0  0  0  0
  -12.1680   15.4800   73.4550 C   0  0  0  0  0  0  0  0  0  0  0  0
  -11.9600   16.7940   73.9870 O   0  0  0  0  0  0  0  0  0  0  0  0
  -13.2540   16.1710   74.0980 O   0  0  0  0  0  0  0  0  0  0  0  0
  1 38  1  0  0  0  0
  1  2  2  0  0  0  0
  1  6  1  0  0  0  0
  2  3  1  0  0  0  0
  2 17  1  0  0  0  0
  3  4  1  0  0  0  0
  4  5  2  0  0  0  0
  4 15  1  0  0  0  0
  5  6  1  0  0  0  0
  5  7  1  0  0  0  0
  7  8  1  0  0  0  0
  7 13  1  0  0  0  0
  8  9  1  0  0  0  0
  9 10  2  0  0  0  0
  9 11  1  0  0  0  0
 11 12  1  0  0  0  0
 12 13  1  0  0  0  0
 12 16  1  0  0  0  0
 13 14  2  0  0  0  0
 14 15  1  0  0  0  0
 14 50  1  0  0  0  0
 17 18  2  0  0  0  0
 17 22  1  0  0  0  0
 18 19  1  0  0  0  0
 19 20  2  0  0  0  0
 20 21  1  0  0  0  0
 21 22  2  0  0  0  0
 21 23  1  0  0  0  0
 22 24  1  0  0  0  0
 23 26  2  0  0  0  0
 24 25  2  0  0  0  0
 25 26  1  0  0  0  0
 25 27  1  0  0  0  0
 26 28  1  0  0  0  0
 27 30  1  0  0  0  0
 27 32  2  0  0  0  0
 28 29  1  0  0  0  0
 29 30  1  0  0  0  0
 29 33  1  0  0  0  0
 30 31  2  0  0  0  0
 33 34  1  0  0  0  0
 33 35  1  0  0  0  0
 33 36  1  0  0  0  0
 35 36  1  0  0  0  0
 36 37  2  0  0  0  0
 38 39  1  0  0  0  0
 39 40  1  0  0  0  0
 39 47  1  0  0  0  0
 40 41  1  0  0  0  0
 41 42  2  0  0  0  0
 41 43  1  0  0  0  0
 42 44  1  0  0  0  0
 43 45  1  0  0  0  0
 43 46  2  0  0  0  0
 45 47  1  0  0  0  0
 45 48  2  0  0  0  0
 47 49  2  0  0  0  0
 50 51  1  0  0  0  0
 50 52  1  0  0  0  0
 51 52  1  0  0  0  0
M  CHG  1  15   1
M  END