
 OpenBabel09202008493D

 45 51  0  0  1  0  0  0  0  0999 V2000
  -10.6060   16.5040   68.0420 C   0  0  0  0  0  0  0  0  0  0  0  0
  -10.3030   15.2670   67.6040 C   0  0  0  0  0  0  0  0  0  0  0  0
  -10.9170   14.0650   68.2680 C   0  0  0  0  0  0  0  0  0  0  0  0
  -11.7180   14.3900   69.4930 C   0  0  0  0  0  0  0  0  0  0  0  0
  -11.9420   15.7080   69.8550 C   0  0  0  0  0  0  0  0  0  0  0  0
  -11.4580   16.7640   69.1120 O   0  0  0  0  0  0  0  0  0  0  0  0
  -12.6270   16.0670   70.9640 N   0  0  0  0  0  0  0  0  0  0  0  0
  -13.0840   15.0580   71.7170 C   0  0  0  0  0  0  0  0  0  0  0  0
  -13.7270   15.4740   72.8400 O   0  0  0  0  0  0  0  0  0  0  0  0
  -12.9270   13.7050   71.4340 C   0  0  0  0  0  0  0  0  0  0  0  0
  -12.2320   13.3600   70.2800 C   0  0  0  0  0  0  0  0  0  0  0  0
  -12.0450   12.0730   69.9340 N   0  0  0  0  0  0  0  0  0  0  0  0
  -12.5420   11.1280   70.7500 C   0  0  0  0  0  0  0  0  0  0  0  0
  -13.2150   11.3500   71.8850 N   0  0  0  0  0  0  0  0  0  0  0  0
  -13.3880   12.6430   72.2080 C   0  0  0  0  0  0  0  0  0  0  0  0
  -10.1260   17.7360   67.3780 C   0  0  0  0  0  0  0  0  0  0  0  0
  -11.0380   18.2770   66.5250 N   0  0  0  0  0  0  0  0  0  0  0  0
  -10.7190   19.4440   65.9310 C   0  0  0  0  0  0  0  0  0  0  0  0
   -9.5300   20.1120   66.1410 C   0  0  0  0  0  0  0  0  0  0  0  0
   -8.5950   19.5650   67.0220 C   0  0  0  0  0  0  0  0  0  0  0  0
   -7.4010   20.2470   67.2920 C   0  0  0  0  0  0  0  0  0  0  0  0
   -8.8750   18.3370   67.6690 C   0  0  0  0  0  0  0  0  0  0  0  0
   -6.4750   19.7450   68.2040 C   0  0  0  0  0  0  0  0  0  0  0  0
   -5.3810   20.5330   68.4240 O   0  0  0  0  0  0  0  0  0  0  0  0
   -6.6970   18.5140   68.8240 C   0  0  0  0  0  0  0  0  0  0  0  0
   -4.5620   20.2100   69.5660 C   0  0  0  0  0  0  0  0  0  0  0  0
   -4.3460   18.7000   69.6710 C   0  0  0  0  0  0  0  0  0  0  0  0
   -5.6970   17.9830   69.8110 C   0  0  0  0  0  0  0  0  0  0  0  0
   -3.4960   18.3590   70.7720 O   0  0  0  0  0  0  0  0  0  0  0  0
   -5.4610   16.5790   69.6560 O   0  0  0  0  0  0  0  0  0  0  0  0
   -7.8980   17.8260   68.5610 C   0  0  0  0  0  0  0  0  0  0  0  0
   -5.1250   20.8500   70.8500 C   0  0  0  0  0  0  0  0  0  0  0  0
   -4.3810   22.0200   71.1940 O   0  0  0  0  0  0  0  0  0  0  0  0
   -9.3970   15.0690   66.5640 O   0  0  0  0  0  0  0  0  0  0  0  0
   -9.9510   14.6950   65.2890 C   0  0  0  0  0  0  0  0  0  0  0  0
   -9.6790   13.3060   65.0290 O   0  0  0  0  0  0  0  0  0  0  0  0
  -10.5350   12.7630   64.0320 C   0  0  0  0  0  0  0  0  0  0  0  0
  -11.9710   12.6420   64.5700 C   0  0  0  0  0  0  0  0  0  0  0  0
  -12.2800   13.7600   65.5820 C   0  0  0  0  0  0  0  0  0  0  0  0
  -12.9240   12.6940   63.4910 O   0  0  0  0  0  0  0  0  0  0  0  0
  -11.4660   15.0240   65.2980 C   0  0  0  0  0  0  0  0  0  0  0  0
  -13.6820   14.0760   65.5360 O   0  0  0  0  0  0  0  0  0  0  0  0
  -11.8610   15.5510   64.0120 O   0  0  0  0  0  0  0  0  0  0  0  0
  -10.0130   11.3880   63.6020 C   0  0  0  0  0  0  0  0  0  0  0  0
  -10.1390   10.4560   64.6750 O   0  0  0  0  0  0  0  0  0  0  0  0
  1 16  1  0  0  0  0
  1  2  2  0  0  0  0
  1  6  1  0  0  0  0
  2 34  1  0  0  0  0
  2  3  1  0  0  0  0
  3  4  1  0  0  0  0
  4  5  2  0  0  0  0
  4 11  1  0  0  0  0
  5  6  1  0  0  0  0
  5  7  1  0  0  0  0
  7  8  2  0  0  0  0
  8  9  1  0  0  0  0
  8 10  1  0  0  0  0
 10 11  2  0  0  0  0
 10 15  1  0  0  0  0
 11 12  1  0  0  0  0
 12 13  2  0  0  0  0
 13 14  1  0  0  0  0
 14 15  2  0  0  0  0
 16 17  1  0  0  0  0
 16 22  2  0  0  0  0
 17 18  2  0  0  0  0
 18 19  1  0  0  0  0
 19 20  2  0  0  0  0
 20 21  1  0  0  0  0
 20 22  1  0  0  0  0
 21 23  2  0  0  0  0
 22 31  1  0  0  0  0
 23 24  1  0  0  0  0
 23 25  1  0  0  0  0
 24 26  1  0  0  0  0
 25 31  2  0  0  0  0
 25 28  1  0  0  0  0
 26 27  1  0  0  0  0
 26 32  1  0  0  0  0
 27 28  1  0  0  0  0
 27 29  1  0  0  0  0
 28 30  1  0  0  0  0
 32 33  1  0  0  0  0
 34 35  1  0  0  0  0
 35 36  1  0  0  0  0
 35 41  1  0  0  0  0
 36 37  1  0  0  0  0
 37 38  1  0  0  0  0
 37 44  1  0  0  0  0
 38 39  1  0  0  0  0
 38 40  1  0  0  0  0
 39 41  1  0  0  0  0
 39 42  1  0  0  0  0
 41 43  1  0  0  0  0
 44 45  1  0  0  0  0
M  END
