
 OpenBabel11262013503D

 54 62  0  0  1  0  0  0  0  0999 V2000
  -11.2310   15.9210   67.2540 C   0  0  0  0  0  0  0  0  0  0  0  0
  -10.7160   16.9630   67.9410 C   0  0  0  0  0  0  0  0  0  0  0  0
  -10.8830   17.1120   69.3290 O   0  0  0  0  0  0  0  0  0  0  0  0
  -11.5340   16.1010   70.0690 C   0  0  0  0  0  0  0  0  0  0  0  0
  -12.0090   14.9980   69.4590 C   0  0  0  0  0  0  0  0  0  0  0  0
  -11.9510   14.8020   67.9720 C   0  0  0  0  0  0  0  0  0  0  0  0
  -12.6400   13.8610   70.2300 C   0  0  0  0  0  0  0  0  0  0  0  0
  -11.7780   12.7470   70.0830 O   0  0  0  0  0  0  0  0  0  0  0  0
  -12.0850   11.6070   70.7640 C   0  0  0  0  0  0  0  0  0  0  0  0
  -11.5610   10.5460   70.4760 O   0  0  0  0  0  0  0  0  0  0  0  0
  -12.9910   11.7370   71.7610 O   0  0  0  0  0  0  0  0  0  0  0  0
  -13.3100   12.9760   72.3810 C   0  0  0  0  0  0  0  0  0  0  0  0
  -12.7050   14.1400   71.6780 C   0  0  0  0  0  0  0  0  0  0  0  0
  -12.2460   15.2820   72.2320 C   0  0  0  0  0  0  0  0  0  0  0  0
  -11.6600   16.2600   71.4390 O   0  0  0  0  0  0  0  0  0  0  0  0
  -14.7030   13.1940   72.2850 O   0  0  0  0  0  0  0  0  0  0  0  0
   -9.9170   18.0300   67.2650 C   0  0  0  0  0  0  0  0  0  0  0  0
  -10.5360   18.8430   66.3050 C   0  0  0  0  0  0  0  0  0  0  0  0
   -9.8350   19.8000   65.6880 N   0  0  0  0  0  0  0  0  0  0  0  0
  -10.4450   20.5860   64.7760 F   0  0  0  0  0  0  0  0  0  0  0  0
   -8.5630   20.0170   65.9500 N   0  0  0  0  0  0  0  0  0  0  0  0
   -7.9350   19.2470   66.8580 C   0  0  0  0  0  0  0  0  0  0  0  0
   -8.5840   18.2260   67.5450 N   0  0  0  0  0  0  0  0  0  0  0  0
   -6.5870   19.4950   67.1470 C   0  0  0  0  0  0  0  0  0  0  0  0
   -7.8840   17.4830   68.4500 C   0  0  0  0  0  0  0  0  0  0  0  0
   -6.5470   17.7520   68.7400 C   0  0  0  0  0  0  0  0  0  0  0  0
   -5.8750   16.9970   69.7860 C   0  0  0  0  0  0  0  0  0  0  0  0
   -5.8880   18.7790   68.1090 C   0  0  0  0  0  0  0  0  0  0  0  0
   -6.4880   16.0950   70.3280 O   0  0  0  0  0  0  0  0  0  0  0  0
   -4.4730   17.4280   70.1550 C   0  0  0  0  0  0  0  0  0  0  0  0
   -3.7260   16.6460   70.7180 O   0  0  0  0  0  0  0  0  0  0  0  0
   -4.1460   18.8580   69.7670 C   0  0  0  0  0  0  0  0  0  0  0  0
   -4.6280   19.1830   68.4370 O   0  0  0  0  0  0  0  0  0  0  0  0
   -5.9750   20.5080   66.5170 F   0  0  0  0  0  0  0  0  0  0  0  0
   -4.6070   19.8470   70.8180 C   0  0  0  0  0  0  0  0  0  0  0  0
   -5.6070   20.7920   70.4100 O   0  0  0  0  0  0  0  0  0  0  0  0
   -4.7240   19.3430   72.1520 O   0  0  0  0  0  0  0  0  0  0  0  0
   -3.7870   20.2760   71.9470 C   0  0  0  0  0  0  0  0  0  0  0  0
   -2.5740   20.2570   72.1110 O   0  0  0  0  0  0  0  0  0  0  0  0
  -11.0330   15.8160   65.8820 O   0  0  0  0  0  0  0  0  0  0  0  0
  -10.6050   14.5220   65.3790 C   0  0  0  0  0  0  0  0  0  0  0  0
  -10.1610   13.7150   66.4690 O   0  0  0  0  0  0  0  0  0  0  0  0
   -9.6950   12.4600   66.1010 C   0  0  0  0  0  0  0  0  0  0  0  0
   -8.7810   11.8530   66.8590 C   0  0  0  0  0  0  0  0  0  0  0  0
  -10.2060   11.7470   64.8910 C   0  0  0  0  0  0  0  0  0  0  0  0
   -8.2940   12.4570   67.9620 F   0  0  0  0  0  0  0  0  0  0  0  0
  -11.3770   12.4520   64.2130 C   0  0  0  0  0  0  0  0  0  0  0  0
   -9.7100   10.7270   64.4530 O   0  0  0  0  0  0  0  0  0  0  0  0
  -11.7780   13.8110   64.7420 C   0  0  0  0  0  0  0  0  0  0  0  0
  -11.9460   11.9840   63.2460 O   0  0  0  0  0  0  0  0  0  0  0  0
  -12.9210   14.2400   64.7290 O   0  0  0  0  0  0  0  0  0  0  0  0
  -12.2860   15.5710   73.6840 C   0  0  0  0  0  0  0  0  0  0  0  0
  -12.1390   16.9100   74.1660 O   0  0  0  0  0  0  0  0  0  0  0  0
  -13.4190   16.2550   74.2470 O   0  0  0  0  0  0  0  0  0  0  0  0
  1 40  1  0  0  0  0
  1  2  2  0  0  0  0
  1  6  1  0  0  0  0
  2  3  1  0  0  0  0
  2 17  1  0  0  0  0
  3  4  1  0  0  0  0
  4  5  2  0  0  0  0
  4 15  1  0  0  0  0
  5  6  1  0  0  0  0
  5  7  1  0  0  0  0
  7  8  1  0  0  0  0
  7 13  1  0  0  0  0
  8  9  1  0  0  0  0
  9 10  2  0  0  0  0
  9 11  1  0  0  0  0
 11 12  1  0  0  0  0
 12 13  1  0  0  0  0
 12 16  1  0  0  0  0
 13 14  2  0  0  0  0
 14 15  1  0  0  0  0
 14 52  1  0  0  0  0
 17 18  2  0  0  0  0
 17 23  1  0  0  0  0
 18 19  1  0  0  0  0
 19 20  1  0  0  0  0
 19 21  2  0  0  0  0
 21 22  1  0  0  0  0
 22 23  2  0  0  0  0
 22 24  1  0  0  0  0
 23 25  1  0  0  0  0
 24 28  2  0  0  0  0
 24 34  1  0  0  0  0
 25 26  2  0  0  0  0
 26 27  1  0  0  0  0
 26 28  1  0  0  0  0
 27 29  2  0  0  0  0
 27 30  1  0  0  0  0
 28 33  1  0  0  0  0
 30 31  2  0  0  0  0
 30 32  1  0  0  0  0
 32 33  1  0  0  0  0
 32 35  1  0  0  0  0
 35 36  1  0  0  0  0
 35 37  1  0  0  0  0
 35 38  1  0  0  0  0
 37 38  1  0  0  0  0
 38 39  2  0  0  0  0
 40 41  1  0  0  0  0
 41 42  1  0  0  0  0
 41 49  1  0  0  0  0
 42 43  1  0  0  0  0
 43 44  2  0  0  0  0
 43 45  1  0  0  0  0
 44 46  1  0  0  0  0
 45 47  1  0  0  0  0
 45 48  2  0  0  0  0
 47 49  1  0  0  0  0
 47 50  2  0  0  0  0
 49 51  2  0  0  0  0
 52 53  1  0  0  0  0
 52 54  1  0  0  0  0
 53 54  1  0  0  0  0
M  CHG  3  15   1  19   1  23   1
M  END