
 OpenBabel11212022373D

 54 62  0  0  1  0  0  0  0  0999 V2000
  -11.0920   15.6160   67.2920 C   0  0  0  0  0  0  0  0  0  0  0  0
  -10.3860   16.5520   67.9690 C   0  0  0  0  0  0  0  0  0  0  0  0
  -10.4930   16.6800   69.3580 O   0  0  0  0  0  0  0  0  0  0  0  0
  -11.3110   15.8360   70.0980 C   0  0  0  0  0  0  0  0  0  0  0  0
  -11.9470   14.8090   69.5100 C   0  0  0  0  0  0  0  0  0  0  0  0
  -11.9420   14.6110   68.0250 C   0  0  0  0  0  0  0  0  0  0  0  0
  -12.7080   13.7910   70.3010 C   0  0  0  0  0  0  0  0  0  0  0  0
  -11.9830   12.5780   70.1900 O   0  0  0  0  0  0  0  0  0  0  0  0
  -12.3930   11.5100   70.9230 C   0  0  0  0  0  0  0  0  0  0  0  0
  -11.9730   10.3890   70.6900 O   0  0  0  0  0  0  0  0  0  0  0  0
  -13.2730   11.7690   71.9190 O   0  0  0  0  0  0  0  0  0  0  0  0
  -13.5100   13.0660   72.4540 C   0  0  0  0  0  0  0  0  0  0  0  0
  -12.7490   14.1240   71.7410 C   0  0  0  0  0  0  0  0  0  0  0  0
  -12.1510   15.2160   72.2660 C   0  0  0  0  0  0  0  0  0  0  0  0
  -11.4190   16.0710   71.4520 O   0  0  0  0  0  0  0  0  0  0  0  0
  -14.8700   13.3990   72.2630 O   0  0  0  0  0  0  0  0  0  0  0  0
   -9.4060   17.5040   67.3150 C   0  0  0  0  0  0  0  0  0  0  0  0
   -9.9570   18.5900   66.6100 C   0  0  0  0  0  0  0  0  0  0  0  0
   -9.3050   19.5700   65.9910 N   0  0  0  0  0  0  0  0  0  0  0  0
  -10.0400   20.5350   65.4010 F   0  0  0  0  0  0  0  0  0  0  0  0
   -7.6890   19.7000   65.8940 S   0  0  0  0  0  0  0  0  0  0  0  0
   -7.1100   18.2320   66.7430 C   0  0  0  0  0  0  0  0  0  0  0  0
   -7.9860   17.3080   67.3540 C   0  0  0  0  0  0  0  0  0  0  0  0
   -5.7090   18.0550   66.7850 C   0  0  0  0  0  0  0  0  0  0  0  0
   -7.3420   16.2110   67.9840 C   0  0  0  0  0  0  0  0  0  0  0  0
   -5.9490   16.0350   67.9950 C   0  0  0  0  0  0  0  0  0  0  0  0
   -5.3770   14.8410   68.6240 C   0  0  0  0  0  0  0  0  0  0  0  0
   -5.1180   16.9680   67.4190 C   0  0  0  0  0  0  0  0  0  0  0  0
   -6.1100   13.9570   69.0470 O   0  0  0  0  0  0  0  0  0  0  0  0
   -3.8680   14.7550   68.6560 C   0  0  0  0  0  0  0  0  0  0  0  0
   -3.3260   13.6700   68.8030 O   0  0  0  0  0  0  0  0  0  0  0  0
   -3.1580   16.0820   68.4740 C   0  0  0  0  0  0  0  0  0  0  0  0
   -3.7560   16.9110   67.4580 O   0  0  0  0  0  0  0  0  0  0  0  0
   -4.9160   18.9770   66.2160 F   0  0  0  0  0  0  0  0  0  0  0  0
   -2.9550   16.8040   69.7850 C   0  0  0  0  0  0  0  0  0  0  0  0
   -4.0500   16.7480   70.7160 O   0  0  0  0  0  0  0  0  0  0  0  0
   -1.6500   16.6720   70.3780 O   0  0  0  0  0  0  0  0  0  0  0  0
   -2.0180   17.8930   69.9800 C   0  0  0  0  0  0  0  0  0  0  0  0
   -1.5210   18.6880   69.1940 O   0  0  0  0  0  0  0  0  0  0  0  0
  -10.9770   15.4940   65.9170 O   0  0  0  0  0  0  0  0  0  0  0  0
  -10.6590   14.2090   65.3630 C   0  0  0  0  0  0  0  0  0  0  0  0
  -10.1350   13.3500   66.3630 O   0  0  0  0  0  0  0  0  0  0  0  0
   -9.7720   12.0960   65.9010 C   0  0  0  0  0  0  0  0  0  0  0  0
   -8.7210   11.4720   66.4430 C   0  0  0  0  0  0  0  0  0  0  0  0
  -10.5490   11.3960   64.8290 C   0  0  0  0  0  0  0  0  0  0  0  0
   -7.9510   12.0470   67.4260 O   0  0  0  0  0  0  0  0  0  0  0  0
  -11.6540   12.2430   64.2170 C   0  0  0  0  0  0  0  0  0  0  0  0
  -10.3120   10.2640   64.4460 O   0  0  0  0  0  0  0  0  0  0  0  0
  -11.9360   13.5830   64.8430 C   0  0  0  0  0  0  0  0  0  0  0  0
  -12.2270   11.9230   63.1910 O   0  0  0  0  0  0  0  0  0  0  0  0
  -13.0580   14.0570   64.9430 O   0  0  0  0  0  0  0  0  0  0  0  0
  -12.1840   15.5670   73.7030 C   0  0  0  0  0  0  0  0  0  0  0  0
  -11.9710   16.9150   74.1360 O   0  0  0  0  0  0  0  0  0  0  0  0
  -13.2810   16.3260   74.2410 O   0  0  0  0  0  0  0  0  0  0  0  0
  1 40  1  0  0  0  0
  1  2  2  0  0  0  0
  1  6  1  0  0  0  0
  2  3  1  0  0  0  0
  2 17  1  0  0  0  0
  3  4  1  0  0  0  0
  4  5  2  0  0  0  0
  4 15  1  0  0  0  0
  5  6  1  0  0  0  0
  5  7  1  0  0  0  0
  7  8  1  0  0  0  0
  7 13  1  0  0  0  0
  8  9  1  0  0  0  0
  9 10  2  0  0  0  0
  9 11  1  0  0  0  0
 11 12  1  0  0  0  0
 12 13  1  0  0  0  0
 12 16  1  0  0  0  0
 13 14  2  0  0  0  0
 14 15  1  0  0  0  0
 14 52  1  0  0  0  0
 17 18  2  0  0  0  0
 17 23  1  0  0  0  0
 18 19  1  0  0  0  0
 19 20  1  0  0  0  0
 19 21  2  0  0  0  0
 21 22  1  0  0  0  0
 22 23  2  0  0  0  0
 22 24  1  0  0  0  0
 23 25  1  0  0  0  0
 24 28  2  0  0  0  0
 24 34  1  0  0  0  0
 25 26  2  0  0  0  0
 26 27  1  0  0  0  0
 26 28  1  0  0  0  0
 27 29  2  0  0  0  0
 27 30  1  0  0  0  0
 28 33  1  0  0  0  0
 30 31  2  0  0  0  0
 30 32  1  0  0  0  0
 32 33  1  0  0  0  0
 32 35  1  0  0  0  0
 35 36  1  0  0  0  0
 35 37  1  0  0  0  0
 35 38  1  0  0  0  0
 37 38  1  0  0  0  0
 38 39  2  0  0  0  0
 40 41  1  0  0  0  0
 41 42  1  0  0  0  0
 41 49  1  0  0  0  0
 42 43  1  0  0  0  0
 43 44  2  0  0  0  0
 43 45  1  0  0  0  0
 44 46  1  0  0  0  0
 45 47  1  0  0  0  0
 45 48  2  0  0  0  0
 47 49  1  0  0  0  0
 47 50  2  0  0  0  0
 49 51  2  0  0  0  0
 52 53  1  0  0  0  0
 52 54  1  0  0  0  0
 53 54  1  0  0  0  0
M  CHG  3  15   1  19   1  21   1
M  END