
 OpenBabel10202010143D

 55 64  0  0  1  0  0  0  0  0999 V2000
   -9.9300   15.2730   67.1020 C   0  0  0  0  0  0  0  0  0  0  0  0
  -10.2950   16.3420   67.8560 C   0  0  0  0  0  0  0  0  0  0  0  0
  -11.0220   16.2180   69.0580 O   0  0  0  0  0  0  0  0  0  0  0  0
  -11.4160   14.9580   69.5060 C   0  0  0  0  0  0  0  0  0  0  0  0
  -11.0800   13.8600   68.8320 C   0  0  0  0  0  0  0  0  0  0  0  0
  -10.2880   13.8880   67.5730 C   0  0  0  0  0  0  0  0  0  0  0  0
  -11.4990   12.5350   69.3580 C   0  0  0  0  0  0  0  0  0  0  0  0
  -11.1280   11.5130   68.6540 N   0  0  0  0  0  0  0  0  0  0  0  0
  -11.4340   10.2410   69.0220 C   0  0  0  0  0  0  0  0  0  0  0  0
  -11.1580    9.2830   68.3110 O   0  0  0  0  0  0  0  0  0  0  0  0
  -12.1110   10.0390   70.3370 C   0  0  0  0  0  0  0  0  0  0  0  0
  -12.5800   11.0720   71.0760 C   0  0  0  0  0  0  0  0  0  0  0  0
  -12.2960   12.4550   70.6410 C   0  0  0  0  0  0  0  0  0  0  0  0
  -12.5930   13.6550   71.2200 C   0  0  0  0  0  0  0  0  0  0  0  0
  -12.1430   14.8580   70.6620 N   0  0  0  0  0  0  0  0  0  0  0  0
  -13.3620   10.7770   72.3410 C   0  0  0  0  0  0  0  0  0  0  0  0
  -13.7360    9.3000   72.5500 C   0  0  0  0  0  0  0  0  0  0  0  0
  -12.5850    8.3790   72.1860 C   0  0  0  0  0  0  0  0  0  0  0  0
  -12.2160    8.5820   70.7240 C   0  0  0  0  0  0  0  0  0  0  0  0
  -10.0420   17.7590   67.4920 C   0  0  0  0  0  0  0  0  0  0  0  0
  -11.1220   18.3900   66.9800 N   0  0  0  0  0  0  0  0  0  0  0  0
  -10.9950   19.7050   66.7740 C   0  0  0  0  0  0  0  0  0  0  0  0
   -9.9260   20.4540   67.0720 N   0  0  0  0  0  0  0  0  0  0  0  0
   -8.8640   19.8250   67.5790 C   0  0  0  0  0  0  0  0  0  0  0  0
   -8.8370   18.4320   67.7830 C   0  0  0  0  0  0  0  0  0  0  0  0
   -7.7550   20.5910   67.9350 C   0  0  0  0  0  0  0  0  0  0  0  0
   -7.6410   17.8400   68.2560 C   0  0  0  0  0  0  0  0  0  0  0  0
   -6.5290   18.6340   68.5610 C   0  0  0  0  0  0  0  0  0  0  0  0
   -6.5980   20.0160   68.4600 C   0  0  0  0  0  0  0  0  0  0  0  0
   -5.2660   18.0170   68.9800 C   0  0  0  0  0  0  0  0  0  0  0  0
   -5.6040   20.8780   68.8420 O   0  0  0  0  0  0  0  0  0  0  0  0
   -4.5300   20.3360   69.6350 C   0  0  0  0  0  0  0  0  0  0  0  0
   -4.1080   18.9630   69.1760 C   0  0  0  0  0  0  0  0  0  0  0  0
   -2.9570   18.6040   68.9850 O   0  0  0  0  0  0  0  0  0  0  0  0
   -5.1520   16.8180   69.1730 O   0  0  0  0  0  0  0  0  0  0  0  0
   -4.8670   20.3530   71.1050 C   0  0  0  0  0  0  0  0  0  0  0  0
   -6.2720   20.4230   71.4500 O   0  0  0  0  0  0  0  0  0  0  0  0
   -4.1300   19.4410   71.9220 O   0  0  0  0  0  0  0  0  0  0  0  0
   -3.8970   20.7570   72.1010 C   0  0  0  0  0  0  0  0  0  0  0  0
   -2.8730   21.3790   72.0540 O   0  0  0  0  0  0  0  0  0  0  0  0
   -9.2560   15.4160   65.8880 O   0  0  0  0  0  0  0  0  0  0  0  0
   -9.7820   14.8020   64.6780 C   0  0  0  0  0  0  0  0  0  0  0  0
   -9.6780   13.3700   64.7200 O   0  0  0  0  0  0  0  0  0  0  0  0
  -10.5760   12.6250   63.9720 C   0  0  0  0  0  0  0  0  0  0  0  0
  -10.2320   11.4460   63.4390 C   0  0  0  0  0  0  0  0  0  0  0  0
  -11.9970   13.0400   63.8410 C   0  0  0  0  0  0  0  0  0  0  0  0
   -8.9970   10.8670   63.5610 O   0  0  0  0  0  0  0  0  0  0  0  0
  -12.2660   14.3280   64.5670 C   0  0  0  0  0  0  0  0  0  0  0  0
  -12.8620   12.4530   63.2170 O   0  0  0  0  0  0  0  0  0  0  0  0
  -11.1890   15.3700   64.5060 C   0  0  0  0  0  0  0  0  0  0  0  0
  -13.2880   14.5010   65.2070 O   0  0  0  0  0  0  0  0  0  0  0  0
  -11.4650   16.5320   64.2450 O   0  0  0  0  0  0  0  0  0  0  0  0
  -13.3660   13.8610   72.4780 C   0  0  0  0  0  0  0  0  0  0  0  0
  -12.7280   14.3880   73.6630 O   0  0  0  0  0  0  0  0  0  0  0  0
  -13.7190   15.1640   72.9690 O   0  0  0  0  0  0  0  0  0  0  0  0
  1 41  1  0  0  0  0
  1  2  2  0  0  0  0
  1  6  1  0  0  0  0
  2  3  1  0  0  0  0
  2 20  1  0  0  0  0
  3  4  1  0  0  0  0
  4  5  2  0  0  0  0
  4 15  1  0  0  0  0
  5  6  1  0  0  0  0
  5  7  1  0  0  0  0
  7  8  2  0  0  0  0
  7 13  1  0  0  0  0
  8  9  1  0  0  0  0
  9 10  2  0  0  0  0
  9 11  1  0  0  0  0
 11 12  2  0  0  0  0
 11 19  1  0  0  0  0
 12 13  1  0  0  0  0
 12 16  1  0  0  0  0
 13 14  2  0  0  0  0
 14 15  1  0  0  0  0
 14 53  1  0  0  0  0
 16 17  1  0  0  0  0
 17 18  1  0  0  0  0
 18 19  1  0  0  0  0
 20 21  2  0  0  0  0
 20 25  1  0  0  0  0
 21 22  1  0  0  0  0
 22 23  2  0  0  0  0
 23 24  1  0  0  0  0
 24 25  2  0  0  0  0
 24 26  1  0  0  0  0
 25 27  1  0  0  0  0
 26 29  2  0  0  0  0
 27 28  2  0  0  0  0
 28 29  1  0  0  0  0
 28 30  1  0  0  0  0
 29 31  1  0  0  0  0
 30 33  1  0  0  0  0
 30 35  2  0  0  0  0
 31 32  1  0  0  0  0
 32 33  1  0  0  0  0
 32 36  1  0  0  0  0
 33 34  2  0  0  0  0
 36 37  1  0  0  0  0
 36 38  1  0  0  0  0
 36 39  1  0  0  0  0
 38 39  1  0  0  0  0
 39 40  2  0  0  0  0
 41 42  1  0  0  0  0
 42 43  1  0  0  0  0
 42 50  1  0  0  0  0
 43 44  1  0  0  0  0
 44 45  2  0  0  0  0
 44 46  1  0  0  0  0
 45 47  1  0  0  0  0
 46 48  1  0  0  0  0
 46 49  2  0  0  0  0
 48 50  1  0  0  0  0
 48 51  2  0  0  0  0
 50 52  2  0  0  0  0
 53 54  1  0  0  0  0
 53 55  1  0  0  0  0
 54 55  1  0  0  0  0
M  END
