
 OpenBabel11222001323D

 54 63  0  0  1  0  0  0  0  0999 V2000
  -10.9810   15.6340   67.1840 C   0  0  0  0  0  0  0  0  0  0  0  0
  -10.5030   16.7330   67.8230 C   0  0  0  0  0  0  0  0  0  0  0  0
  -10.5800   16.8410   69.2230 O   0  0  0  0  0  0  0  0  0  0  0  0
  -11.2820   15.9030   69.9840 C   0  0  0  0  0  0  0  0  0  0  0  0
  -11.8180   14.8130   69.4090 C   0  0  0  0  0  0  0  0  0  0  0  0
  -11.7060   14.5460   67.9420 C   0  0  0  0  0  0  0  0  0  0  0  0
  -12.5760   13.7790   70.1910 C   0  0  0  0  0  0  0  0  0  0  0  0
  -11.8700   12.5530   70.1010 O   0  0  0  0  0  0  0  0  0  0  0  0
  -12.4550   11.4840   70.7170 C   0  0  0  0  0  0  0  0  0  0  0  0
  -12.1530   10.3390   70.4130 O   0  0  0  0  0  0  0  0  0  0  0  0
  -13.3720   11.7850   71.6620 O   0  0  0  0  0  0  0  0  0  0  0  0
  -13.3990   13.0430   72.3350 C   0  0  0  0  0  0  0  0  0  0  0  0
  -12.6280   14.1020   71.6290 C   0  0  0  0  0  0  0  0  0  0  0  0
  -12.0690   15.2130   72.1590 C   0  0  0  0  0  0  0  0  0  0  0  0
  -11.4020   16.1230   71.3440 O   0  0  0  0  0  0  0  0  0  0  0  0
  -14.7310   13.5150   72.3420 O   0  0  0  0  0  0  0  0  0  0  0  0
   -9.8950   17.9330   67.1230 C   0  0  0  0  0  0  0  0  0  0  0  0
  -10.6970   18.7230   66.2970 C   0  0  0  0  0  0  0  0  0  0  0  0
  -10.2450   19.8420   65.7230 N   0  0  0  0  0  0  0  0  0  0  0  0
   -9.0070   20.2610   65.8700 N   0  0  0  0  0  0  0  0  0  0  0  0
  -11.0880   20.5790   64.9740 F   0  0  0  0  0  0  0  0  0  0  0  0
   -8.1560   19.5540   66.6110 C   0  0  0  0  0  0  0  0  0  0  0  0
   -8.5390   18.3570   67.2580 C   0  0  0  0  0  0  0  0  0  0  0  0
   -6.8520   20.0370   66.7650 C   0  0  0  0  0  0  0  0  0  0  0  0
   -7.5340   17.6930   68.0020 C   0  0  0  0  0  0  0  0  0  0  0  0
   -6.2280   18.1900   68.1140 C   0  0  0  0  0  0  0  0  0  0  0  0
   -5.2520   17.4510   68.9110 C   0  0  0  0  0  0  0  0  0  0  0  0
   -5.8790   19.3860   67.5270 C   0  0  0  0  0  0  0  0  0  0  0  0
   -4.0150   18.1950   69.2830 C   0  0  0  0  0  0  0  0  0  0  0  0
   -5.4650   16.2270   69.3020 N   0  0  0  0  0  0  0  0  0  0  0  0
   -3.3730   17.8300   70.3490 N   0  0  0  0  0  0  0  0  0  0  0  0
   -3.6340   19.3490   68.3830 C   0  0  0  0  0  0  0  0  0  0  0  0
   -2.2230   18.5920   70.6710 N   0  0  0  0  0  0  0  0  0  0  0  0
   -2.2690   19.8750   70.4790 C   0  0  0  0  0  0  0  0  0  0  0  0
   -2.8950   20.3570   69.2110 C   0  0  0  0  0  0  0  0  0  0  0  0
   -3.4030   20.6440   70.4730 O   0  0  0  0  0  0  0  0  0  0  0  0
   -2.2390   21.4300   68.5120 O   0  0  0  0  0  0  0  0  0  0  0  0
   -4.6730   20.0030   67.6550 O   0  0  0  0  0  0  0  0  0  0  0  0
   -6.5270   21.1910   66.1590 F   0  0  0  0  0  0  0  0  0  0  0  0
  -10.9190   15.5050   65.8030 O   0  0  0  0  0  0  0  0  0  0  0  0
  -10.7250   14.1800   65.2600 C   0  0  0  0  0  0  0  0  0  0  0  0
  -10.5880   13.2280   66.3030 O   0  0  0  0  0  0  0  0  0  0  0  0
  -10.2830   11.9610   65.8250 C   0  0  0  0  0  0  0  0  0  0  0  0
   -9.4750   11.1450   66.5120 C   0  0  0  0  0  0  0  0  0  0  0  0
  -10.8330   11.4940   64.5190 C   0  0  0  0  0  0  0  0  0  0  0  0
   -8.8990   11.5090   67.7010 O   0  0  0  0  0  0  0  0  0  0  0  0
  -11.9590   12.3820   64.0090 C   0  0  0  0  0  0  0  0  0  0  0  0
  -10.3630   10.5950   63.8500 O   0  0  0  0  0  0  0  0  0  0  0  0
  -11.9100   13.8490   64.3710 C   0  0  0  0  0  0  0  0  0  0  0  0
  -12.8630   11.9430   63.3270 O   0  0  0  0  0  0  0  0  0  0  0  0
  -12.6750   14.6810   63.9020 O   0  0  0  0  0  0  0  0  0  0  0  0
  -12.1750   15.5670   73.5940 C   0  0  0  0  0  0  0  0  0  0  0  0
  -11.9720   16.9210   74.0280 O   0  0  0  0  0  0  0  0  0  0  0  0
  -13.2850   16.3280   74.0860 O   0  0  0  0  0  0  0  0  0  0  0  0
  1 40  1  0  0  0  0
  1  2  2  0  0  0  0
  1  6  1  0  0  0  0
  2  3  1  0  0  0  0
  2 17  1  0  0  0  0
  3  4  1  0  0  0  0
  4  5  2  0  0  0  0
  4 15  1  0  0  0  0
  5  6  1  0  0  0  0
  5  7  1  0  0  0  0
  7  8  1  0  0  0  0
  7 13  1  0  0  0  0
  8  9  1  0  0  0  0
  9 10  2  0  0  0  0
  9 11  1  0  0  0  0
 11 12  1  0  0  0  0
 12 13  1  0  0  0  0
 12 16  1  0  0  0  0
 13 14  2  0  0  0  0
 14 15  1  0  0  0  0
 14 52  1  0  0  0  0
 17 18  2  0  0  0  0
 17 23  1  0  0  0  0
 18 19  1  0  0  0  0
 19 20  2  0  0  0  0
 19 21  1  0  0  0  0
 20 22  1  0  0  0  0
 22 23  2  0  0  0  0
 22 24  1  0  0  0  0
 23 25  1  0  0  0  0
 24 28  2  0  0  0  0
 24 39  1  0  0  0  0
 25 26  2  0  0  0  0
 26 27  1  0  0  0  0
 26 28  1  0  0  0  0
 27 29  1  0  0  0  0
 27 30  2  0  0  0  0
 28 38  1  0  0  0  0
 29 31  2  0  0  0  0
 29 32  1  0  0  0  0
 31 33  1  0  0  0  0
 32 35  1  0  0  0  0
 32 38  1  0  0  0  0
 33 34  2  0  0  0  0
 34 35  1  0  0  0  0
 34 36  1  0  0  0  0
 35 36  1  0  0  0  0
 35 37  1  0  0  0  0
 40 41  1  0  0  0  0
 41 42  1  0  0  0  0
 41 49  1  0  0  0  0
 42 43  1  0  0  0  0
 43 44  2  0  0  0  0
 43 45  1  0  0  0  0
 44 46  1  0  0  0  0
 45 47  1  0  0  0  0
 45 48  2  0  0  0  0
 47 49  1  0  0  0  0
 47 50  2  0  0  0  0
 49 51  2  0  0  0  0
 52 53  1  0  0  0  0
 52 54  1  0  0  0  0
 53 54  1  0  0  0  0
M  CHG  2  15   1  19   1
M  END